* NGSPICE file created from grid_clb.ext - technology: sky130A

* Black-box entry subcircuit for sky130_fd_sc_hd__ebufn_1 abstract view
.subckt sky130_fd_sc_hd__ebufn_1 A TE_B VGND VNB VPB VPWR Z
.ends

* Black-box entry subcircuit for sky130_fd_sc_hd__dfxtp_1 abstract view
.subckt sky130_fd_sc_hd__dfxtp_1 CLK D VGND VNB VPB VPWR Q
.ends

* Black-box entry subcircuit for sky130_fd_sc_hd__tapvpwrvgnd_1 abstract view
.subckt sky130_fd_sc_hd__tapvpwrvgnd_1 VGND VPWR
.ends

* Black-box entry subcircuit for sky130_fd_sc_hd__clkbuf_1 abstract view
.subckt sky130_fd_sc_hd__clkbuf_1 A VGND VNB VPB VPWR X
.ends

* Black-box entry subcircuit for sky130_fd_sc_hd__inv_2 abstract view
.subckt sky130_fd_sc_hd__inv_2 A VGND VNB VPB VPWR Y
.ends

* Black-box entry subcircuit for sky130_fd_sc_hd__fill_1 abstract view
.subckt sky130_fd_sc_hd__fill_1 VGND VNB VPB VPWR
.ends

* Black-box entry subcircuit for sky130_fd_sc_hd__decap_4 abstract view
.subckt sky130_fd_sc_hd__decap_4 VGND VNB VPB VPWR
.ends

* Black-box entry subcircuit for sky130_fd_sc_hd__fill_2 abstract view
.subckt sky130_fd_sc_hd__fill_2 VGND VNB VPB VPWR
.ends

* Black-box entry subcircuit for sky130_fd_sc_hd__buf_1 abstract view
.subckt sky130_fd_sc_hd__buf_1 A VGND VNB VPB VPWR X
.ends

* Black-box entry subcircuit for sky130_fd_sc_hd__dlygate4sd3_1 abstract view
.subckt sky130_fd_sc_hd__dlygate4sd3_1 A VGND VNB VPB VPWR X
.ends

* Black-box entry subcircuit for sky130_fd_sc_hd__ebufn_2 abstract view
.subckt sky130_fd_sc_hd__ebufn_2 A TE_B VGND VNB VPB VPWR Z
.ends

* Black-box entry subcircuit for sky130_fd_sc_hd__conb_1 abstract view
.subckt sky130_fd_sc_hd__conb_1 VGND VNB VPB VPWR HI LO
.ends

* Black-box entry subcircuit for sky130_fd_sc_hd__decap_6 abstract view
.subckt sky130_fd_sc_hd__decap_6 VGND VNB VPB VPWR
.ends

* Black-box entry subcircuit for sky130_fd_sc_hd__dfbbn_1 abstract view
.subckt sky130_fd_sc_hd__dfbbn_1 CLK_N D RESET_B SET_B VGND VNB VPB VPWR Q Q_N
.ends

* Black-box entry subcircuit for sky130_fd_sc_hd__clkbuf_8 abstract view
.subckt sky130_fd_sc_hd__clkbuf_8 A VGND VNB VPB VPWR X
.ends

* Black-box entry subcircuit for sky130_fd_sc_hd__buf_6 abstract view
.subckt sky130_fd_sc_hd__buf_6 A VGND VNB VPB VPWR X
.ends

* Black-box entry subcircuit for sky130_fd_sc_hd__decap_3 abstract view
.subckt sky130_fd_sc_hd__decap_3 VGND VNB VPB VPWR
.ends

* Black-box entry subcircuit for sky130_fd_sc_hd__dfxtp_2 abstract view
.subckt sky130_fd_sc_hd__dfxtp_2 CLK D VGND VNB VPB VPWR Q
.ends

* Black-box entry subcircuit for sky130_fd_sc_hd__decap_8 abstract view
.subckt sky130_fd_sc_hd__decap_8 VGND VNB VPB VPWR
.ends

* Black-box entry subcircuit for sky130_ef_sc_hd__decap_12 abstract view
.subckt sky130_ef_sc_hd__decap_12 VGND VNB VPB VPWR
.ends

* Black-box entry subcircuit for sky130_fd_sc_hd__ebufn_8 abstract view
.subckt sky130_fd_sc_hd__ebufn_8 A TE_B VGND VNB VPB VPWR Z
.ends

* Black-box entry subcircuit for sky130_fd_sc_hd__ebufn_4 abstract view
.subckt sky130_fd_sc_hd__ebufn_4 A TE_B VGND VNB VPB VPWR Z
.ends

* Black-box entry subcircuit for sky130_fd_sc_hd__nand2_1 abstract view
.subckt sky130_fd_sc_hd__nand2_1 A B VGND VNB VPB VPWR Y
.ends

* Black-box entry subcircuit for sky130_fd_sc_hd__clkinv_4 abstract view
.subckt sky130_fd_sc_hd__clkinv_4 A VGND VNB VPB VPWR Y
.ends

* Black-box entry subcircuit for sky130_fd_sc_hd__clkbuf_4 abstract view
.subckt sky130_fd_sc_hd__clkbuf_4 A VGND VNB VPB VPWR X
.ends

* Black-box entry subcircuit for sky130_fd_sc_hd__buf_2 abstract view
.subckt sky130_fd_sc_hd__buf_2 A VGND VNB VPB VPWR X
.ends

* Black-box entry subcircuit for sky130_fd_sc_hd__clkbuf_2 abstract view
.subckt sky130_fd_sc_hd__clkbuf_2 A VGND VNB VPB VPWR X
.ends

* Black-box entry subcircuit for sky130_fd_sc_hd__buf_4 abstract view
.subckt sky130_fd_sc_hd__buf_4 A VGND VNB VPB VPWR X
.ends

* Black-box entry subcircuit for sky130_fd_sc_hd__clkbuf_16 abstract view
.subckt sky130_fd_sc_hd__clkbuf_16 A VGND VNB VPB VPWR X
.ends

* Black-box entry subcircuit for sky130_fd_sc_hd__diode_2 abstract view
.subckt sky130_fd_sc_hd__diode_2 DIODE VGND VNB VPB VPWR
.ends

.subckt grid_clb bottom_width_0_height_0_subtile_0__pin_I_2_ bottom_width_0_height_0_subtile_0__pin_I_6_
+ bottom_width_0_height_0_subtile_0__pin_O_0_ bottom_width_0_height_0_subtile_0__pin_clk_0_
+ ccff_head ccff_tail clk left_width_0_height_0_subtile_0__pin_I_3_ left_width_0_height_0_subtile_0__pin_I_7_
+ left_width_0_height_0_subtile_0__pin_O_1_ prog_clk reset right_width_0_height_0_subtile_0__pin_I_1_
+ right_width_0_height_0_subtile_0__pin_I_5_ right_width_0_height_0_subtile_0__pin_I_9_
+ right_width_0_height_0_subtile_0__pin_O_3_ set top_width_0_height_0_subtile_0__pin_I_0_
+ top_width_0_height_0_subtile_0__pin_I_4_ top_width_0_height_0_subtile_0__pin_I_8_
+ top_width_0_height_0_subtile_0__pin_O_2_ vdd vss
X_2106_ logical_tile_clb_mode_clb__0.mux_fle_3_in_3.mux_l2_in_0_.TGATE_0_.out _0352_
+ vss vss vdd vdd logical_tile_clb_mode_clb__0.mux_fle_3_in_3.mux_l3_in_0_.TGATE_0_.out
+ sky130_fd_sc_hd__ebufn_1
X_2037_ clknet_4_0_0_prog_clk net90 vss vss vdd vdd logical_tile_clb_mode_clb__0.logical_tile_clb_mode_default__fle_1.logical_tile_clb_mode_default__fle_mode_n1_lut4__ble4_0.mem_ble4_out_0.DFF_0_.Q
+ sky130_fd_sc_hd__dfxtp_1
XTAP_177 vss vdd sky130_fd_sc_hd__tapvpwrvgnd_1
XTAP_188 vss vdd sky130_fd_sc_hd__tapvpwrvgnd_1
XTAP_199 vss vdd sky130_fd_sc_hd__tapvpwrvgnd_1
X_1270_ logical_tile_clb_mode_clb__0.mem_fle_1_in_1.DFF_1_.Q vss vss vdd vdd _0082_
+ sky130_fd_sc_hd__clkbuf_1
X_1606_ logical_tile_clb_mode_clb__0.mem_fle_3_in_2.DFF_1_.Q vss vss vdd vdd _0377_
+ sky130_fd_sc_hd__inv_2
X_0985_ _0293_ vss vss vdd vdd _0702_ sky130_fd_sc_hd__clkbuf_1
X_2655_ logical_tile_clb_mode_clb__0.logical_tile_clb_mode_default__fle_0.logical_tile_clb_mode_default__fle_mode_n1_lut4__ble4_0.logical_tile_clb_mode_default__fle_mode_n1_lut4__ble4_mode_default__lut4_0.lut4_0_.lut4_mux_0_.lut4_mux_basis_input2_mem1_0_out
+ _0901_ vss vss vdd vdd logical_tile_clb_mode_clb__0.logical_tile_clb_mode_default__fle_0.logical_tile_clb_mode_default__fle_mode_n1_lut4__ble4_0.logical_tile_clb_mode_default__fle_mode_n1_lut4__ble4_mode_default__lut4_0.lut4_0_.lut4_mux_0_.lut4_mux_basis_input2_mem1_8_out
+ sky130_fd_sc_hd__ebufn_1
X_1537_ _0177_ vss vss vdd vdd _0361_ sky130_fd_sc_hd__clkbuf_1
X_2586_ logical_tile_clb_mode_clb__0.logical_tile_clb_mode_default__fle_2.logical_tile_clb_mode_default__fle_mode_n1_lut4__ble4_0.logical_tile_clb_mode_default__fle_mode_n1_lut4__ble4_mode_default__lut4_0.lut4_0_.lut4_mux_0_.INVTX1_14_.out
+ _0832_ vss vss vdd vdd logical_tile_clb_mode_clb__0.logical_tile_clb_mode_default__fle_2.logical_tile_clb_mode_default__fle_mode_n1_lut4__ble4_0.logical_tile_clb_mode_default__fle_mode_n1_lut4__ble4_mode_default__lut4_0.lut4_0_.lut4_mux_0_.lut4_mux_basis_input2_mem1_7_out
+ sky130_fd_sc_hd__ebufn_1
X_1399_ _0127_ vss vss vdd vdd _0507_ sky130_fd_sc_hd__clkbuf_1
X_1468_ _0151_ vss vss vdd vdd _0534_ sky130_fd_sc_hd__clkbuf_1
X_2440_ logical_tile_clb_mode_clb__0.mux_fle_0_in_3.mux_l1_in_4_.TGATE_0_.out _0686_
+ vss vss vdd vdd logical_tile_clb_mode_clb__0.mux_fle_0_in_3.mux_l2_in_2_.TGATE_0_.out
+ sky130_fd_sc_hd__ebufn_1
X_1322_ _0099_ vss vss vdd vdd _0847_ sky130_fd_sc_hd__inv_2
X_1253_ _0075_ vss vss vdd vdd _0871_ sky130_fd_sc_hd__clkbuf_1
X_2371_ net57 _0617_ vss vss vdd vdd logical_tile_clb_mode_clb__0.mux_fle_1_in_2.mux_l2_in_3_.TGATE_0_.out
+ sky130_fd_sc_hd__ebufn_1
X_1184_ logical_tile_clb_mode_clb__0.mem_fle_1_in_3.DFF_0_.Q vss vss vdd vdd _0052_
+ sky130_fd_sc_hd__clkbuf_1
XFILLER_0_46_169 vss vss vdd vdd sky130_fd_sc_hd__fill_1
X_0968_ logical_tile_clb_mode_clb__0.mem_fle_0_in_3.DFF_1_.Q vss vss vdd vdd _0687_
+ sky130_fd_sc_hd__inv_2
X_2569_ logical_tile_clb_mode_clb__0.logical_tile_clb_mode_default__fle_3.logical_tile_clb_mode_default__fle_mode_n1_lut4__ble4_0.logical_tile_clb_mode_default__fle_mode_n1_lut4__ble4_mode_default__lut4_0.lut4_0_.lut4_mux_0_.lut4_mux_basis_input2_mem1_3_out
+ _0815_ vss vss vdd vdd logical_tile_clb_mode_clb__0.logical_tile_clb_mode_default__fle_3.logical_tile_clb_mode_default__fle_mode_n1_lut4__ble4_0.logical_tile_clb_mode_default__fle_mode_n1_lut4__ble4_mode_default__lut4_0.lut4_0_.lut4_mux_0_.lut4_mux_basis_input2_mem1_9_out
+ sky130_fd_sc_hd__ebufn_1
X_2638_ logical_tile_clb_mode_clb__0.logical_tile_clb_mode_default__fle_1.logical_tile_clb_mode_default__fle_mode_n1_lut4__ble4_0.logical_tile_clb_mode_default__fle_mode_n1_lut4__ble4_mode_default__lut4_0.lut4_0_.lut4_mux_0_.lut4_mux_basis_input2_mem1_5_out
+ _0884_ vss vss vdd vdd logical_tile_clb_mode_clb__0.logical_tile_clb_mode_default__fle_1.logical_tile_clb_mode_default__fle_mode_n1_lut4__ble4_0.logical_tile_clb_mode_default__fle_mode_n1_lut4__ble4_mode_default__lut4_0.lut4_0_.lut4_mux_0_.lut4_mux_basis_input2_mem1_10_out
+ sky130_fd_sc_hd__ebufn_1
XFILLER_0_37_169 vss vss vdd vdd sky130_fd_sc_hd__decap_4
XFILLER_0_45_49 vss vss vdd vdd sky130_fd_sc_hd__fill_1
XFILLER_0_0_29 vss vss vdd vdd sky130_fd_sc_hd__fill_2
X_1871_ logical_tile_clb_mode_clb__0.logical_tile_clb_mode_default__fle_2.logical_tile_clb_mode_default__fle_mode_n1_lut4__ble4_0.logical_tile_clb_mode_default__fle_mode_n1_lut4__ble4_mode_default__lut4_0.lut4_0_.lut4_mux_0_.INVTX1_10_.in
+ vss vss vdd vdd logical_tile_clb_mode_clb__0.logical_tile_clb_mode_default__fle_2.logical_tile_clb_mode_default__fle_mode_n1_lut4__ble4_0.logical_tile_clb_mode_default__fle_mode_n1_lut4__ble4_mode_default__lut4_0.lut4_0_.lut4_mux_0_.INVTX1_10_.out
+ sky130_fd_sc_hd__inv_2
X_1940_ clknet_4_15_0_prog_clk net175 vss vss vdd vdd net16 sky130_fd_sc_hd__dfxtp_1
XFILLER_0_10_85 vss vss vdd vdd sky130_fd_sc_hd__fill_1
X_2423_ net27 _0669_ vss vss vdd vdd logical_tile_clb_mode_clb__0.mux_fle_1_in_0.mux_l1_in_6_.TGATE_0_.out
+ sky130_fd_sc_hd__ebufn_1
X_1305_ _0093_ vss vss vdd vdd _0676_ sky130_fd_sc_hd__buf_1
X_2354_ logical_tile_clb_mode_clb__0.mux_fle_1_in_2.mux_l1_in_0_.TGATE_0_.out _0600_
+ vss vss vdd vdd logical_tile_clb_mode_clb__0.mux_fle_1_in_2.mux_l2_in_0_.TGATE_0_.out
+ sky130_fd_sc_hd__ebufn_1
X_1236_ _0070_ vss vss vdd vdd _0610_ sky130_fd_sc_hd__clkbuf_1
X_2285_ logical_tile_clb_mode_clb__0.mux_fle_2_in_1.mux_l1_in_3_.TGATE_0_.out _0531_
+ vss vss vdd vdd logical_tile_clb_mode_clb__0.mux_fle_2_in_1.mux_l2_in_1_.TGATE_0_.out
+ sky130_fd_sc_hd__ebufn_1
XFILLER_0_35_93 vss vss vdd vdd sky130_fd_sc_hd__fill_2
X_1167_ _0046_ vss vss vdd vdd _0588_ sky130_fd_sc_hd__clkbuf_1
X_1098_ _0012_ vss vss vdd vdd _0735_ sky130_fd_sc_hd__inv_2
XFILLER_0_34_139 vss vss vdd vdd sky130_fd_sc_hd__fill_1
X_1021_ logical_tile_clb_mode_clb__0.mem_fle_0_in_2.DFF_1_.Q vss vss vdd vdd _0306_
+ sky130_fd_sc_hd__clkbuf_1
X_1854_ logical_tile_clb_mode_clb__0.logical_tile_clb_mode_default__fle_3.logical_tile_clb_mode_default__fle_mode_n1_lut4__ble4_0.logical_tile_clb_mode_default__fle_mode_n1_lut4__ble4_mode_default__lut4_0.lut4_0_.lut4_mux_0_.INVTX1_11_.in
+ vss vss vdd vdd logical_tile_clb_mode_clb__0.logical_tile_clb_mode_default__fle_3.logical_tile_clb_mode_default__fle_mode_n1_lut4__ble4_0.logical_tile_clb_mode_default__fle_mode_n1_lut4__ble4_mode_default__lut4_0.lut4_0_.lut4_mux_0_.INVTX1_11_.out
+ sky130_fd_sc_hd__inv_2
X_1923_ clknet_4_10_0_prog_clk net107 vss vss vdd vdd logical_tile_clb_mode_clb__0.logical_tile_clb_mode_default__fle_0.logical_tile_clb_mode_default__fle_mode_n1_lut4__ble4_0.logical_tile_clb_mode_default__fle_mode_n1_lut4__ble4_mode_default__lut4_0.lut4_0_.lut4_mux_0_.INVTX1_10_.in
+ sky130_fd_sc_hd__dfxtp_1
X_1785_ _0263_ vss vss vdd vdd _0664_ sky130_fd_sc_hd__clkbuf_1
XFILLER_0_21_51 vss vss vdd vdd sky130_fd_sc_hd__fill_2
X_2406_ net35 _0652_ vss vss vdd vdd logical_tile_clb_mode_clb__0.mux_fle_1_in_0.mux_l1_in_3_.TGATE_0_.out
+ sky130_fd_sc_hd__ebufn_1
X_2199_ net26 _0445_ vss vss vdd vdd logical_tile_clb_mode_clb__0.mux_fle_3_in_0.mux_l1_in_6_.TGATE_0_.out
+ sky130_fd_sc_hd__ebufn_1
X_1219_ _0063_ vss vss vdd vdd _0599_ sky130_fd_sc_hd__inv_2
X_2337_ net28 _0583_ vss vss vdd vdd logical_tile_clb_mode_clb__0.mux_fle_1_in_3.mux_l1_in_4_.TGATE_0_.out
+ sky130_fd_sc_hd__ebufn_1
X_2268_ net24 _0514_ vss vss vdd vdd logical_tile_clb_mode_clb__0.mux_fle_2_in_1.mux_l1_in_5_.TGATE_0_.out
+ sky130_fd_sc_hd__ebufn_1
Xhold63 logical_tile_clb_mode_clb__0.logical_tile_clb_mode_default__fle_3.logical_tile_clb_mode_default__fle_mode_n1_lut4__ble4_0.logical_tile_clb_mode_default__fle_mode_n1_lut4__ble4_mode_default__lut4_0.lut4_0_.lut4_mux_0_.INVTX1_4_.in
+ vss vss vdd vdd net130 sky130_fd_sc_hd__dlygate4sd3_1
Xhold30 logical_tile_clb_mode_clb__0.logical_tile_clb_mode_default__fle_2.logical_tile_clb_mode_default__fle_mode_n1_lut4__ble4_0.logical_tile_clb_mode_default__fle_mode_n1_lut4__ble4_mode_default__lut4_0.lut4_0_.lut4_mux_0_.INVTX1_11_.in
+ vss vss vdd vdd net97 sky130_fd_sc_hd__dlygate4sd3_1
XFILLER_0_30_197 vss vss vdd vdd sky130_fd_sc_hd__fill_2
Xhold41 logical_tile_clb_mode_clb__0.logical_tile_clb_mode_default__fle_2.logical_tile_clb_mode_default__fle_mode_n1_lut4__ble4_0.logical_tile_clb_mode_default__fle_mode_n1_lut4__ble4_mode_default__lut4_0.lut4_0_.lut4_mux_0_.INVTX1_7_.in
+ vss vss vdd vdd net108 sky130_fd_sc_hd__dlygate4sd3_1
Xhold74 logical_tile_clb_mode_clb__0.logical_tile_clb_mode_default__fle_0.ccff_tail
+ vss vss vdd vdd net141 sky130_fd_sc_hd__dlygate4sd3_1
Xhold52 logical_tile_clb_mode_clb__0.logical_tile_clb_mode_default__fle_0.logical_tile_clb_mode_default__fle_mode_n1_lut4__ble4_0.logical_tile_clb_mode_default__fle_mode_n1_lut4__ble4_mode_default__lut4_0.lut4_0_.lut4_mux_0_.INVTX1_8_.in
+ vss vss vdd vdd net119 sky130_fd_sc_hd__dlygate4sd3_1
Xhold85 logical_tile_clb_mode_clb__0.mem_fle_3_in_2.DFF_0_.Q vss vss vdd vdd net152
+ sky130_fd_sc_hd__dlygate4sd3_1
Xhold96 logical_tile_clb_mode_clb__0.mem_fle_1_in_0.DFF_0_.Q vss vss vdd vdd net163
+ sky130_fd_sc_hd__dlygate4sd3_1
XTAP_337 vss vdd sky130_fd_sc_hd__tapvpwrvgnd_1
XTAP_326 vss vdd sky130_fd_sc_hd__tapvpwrvgnd_1
X_1570_ logical_tile_clb_mode_clb__0.logical_tile_clb_mode_default__fle_3.logical_tile_clb_mode_default__fle_mode_n1_lut4__ble4_0.logical_tile_clb_mode_default__fle_mode_n1_lut4__ble4_mode_default__lut4_0.lut4_0_.INVTX1_0_.out
+ vss vss vdd vdd _0189_ sky130_fd_sc_hd__clkbuf_1
XTAP_315 vss vdd sky130_fd_sc_hd__tapvpwrvgnd_1
XTAP_304 vss vdd sky130_fd_sc_hd__tapvpwrvgnd_1
XFILLER_0_21_186 vss vss vdd vdd sky130_fd_sc_hd__fill_1
X_2122_ logical_tile_clb_mode_clb__0.mux_fle_3_in_3.mux_l3_in_1_.TGATE_0_.out _0368_
+ vss vss vdd vdd logical_tile_clb_mode_clb__0.logical_tile_clb_mode_default__fle_3.logical_tile_clb_mode_default__fle_mode_n1_lut4__ble4_0.logical_tile_clb_mode_default__fle_mode_n1_lut4__ble4_mode_default__lut4_0.lut4_0_.INVTX1_3_.out
+ sky130_fd_sc_hd__ebufn_2
X_2053_ clknet_4_2_0_prog_clk net75 vss vss vdd vdd logical_tile_clb_mode_clb__0.logical_tile_clb_mode_default__fle_1.logical_tile_clb_mode_default__fle_mode_n1_lut4__ble4_0.logical_tile_clb_mode_default__fle_mode_n1_lut4__ble4_mode_default__lut4_0.lut4_0_.lut4_mux_0_.INVTX1_1_.in
+ sky130_fd_sc_hd__dfxtp_1
X_2511__62 vss vss vdd vdd net62 _2511__62/LO sky130_fd_sc_hd__conb_1
XFILLER_0_29_297 vss vss vdd vdd sky130_fd_sc_hd__fill_2
X_1004_ _0288_ vss vss vdd vdd _0677_ sky130_fd_sc_hd__inv_2
XFILLER_0_44_234 vss vss vdd vdd sky130_fd_sc_hd__decap_6
X_1906_ logical_tile_clb_mode_clb__0.logical_tile_clb_mode_default__fle_0.logical_tile_clb_mode_default__fle_mode_n1_lut4__ble4_0.logical_tile_clb_mode_default__fle_mode_n1_lut4__ble4_mode_default__lut4_0.lut4_0_.lut4_mux_0_.INVTX1_9_.in
+ vss vss vdd vdd logical_tile_clb_mode_clb__0.logical_tile_clb_mode_default__fle_0.logical_tile_clb_mode_default__fle_mode_n1_lut4__ble4_0.logical_tile_clb_mode_default__fle_mode_n1_lut4__ble4_mode_default__lut4_0.lut4_0_.lut4_mux_0_.INVTX1_9_.out
+ sky130_fd_sc_hd__inv_2
X_1837_ net9 vss vss vdd vdd logical_tile_clb_mode_clb__0.mux_fle_0_in_0.INVTX1_5_.out
+ sky130_fd_sc_hd__inv_2
X_1768_ _0096_ vss vss vdd vdd _0653_ sky130_fd_sc_hd__inv_2
X_1699_ _0235_ vss vss vdd vdd _0442_ sky130_fd_sc_hd__clkbuf_1
XFILLER_0_12_197 vss vss vdd vdd sky130_fd_sc_hd__fill_2
XFILLER_0_37_28 vss vss vdd vdd sky130_fd_sc_hd__fill_1
X_1622_ logical_tile_clb_mode_clb__0.logical_tile_clb_mode_default__fle_3.logical_tile_clb_mode_default__fle_mode_n1_lut4__ble4_0.logical_tile_clb_mode_default__fle_mode_n1_lut4__ble4_mode_default__lut4_0.lut4_0_.INVTX1_1_.out
+ vss vss vdd vdd _0814_ sky130_fd_sc_hd__inv_2
X_1553_ _0183_ vss vss vdd vdd _0358_ sky130_fd_sc_hd__clkbuf_1
XTAP_134 vss vdd sky130_fd_sc_hd__tapvpwrvgnd_1
XTAP_123 vss vdd sky130_fd_sc_hd__tapvpwrvgnd_1
XTAP_112 vss vdd sky130_fd_sc_hd__tapvpwrvgnd_1
XTAP_101 vss vdd sky130_fd_sc_hd__tapvpwrvgnd_1
XTAP_145 vss vdd sky130_fd_sc_hd__tapvpwrvgnd_1
XTAP_156 vss vdd sky130_fd_sc_hd__tapvpwrvgnd_1
XTAP_167 vss vdd sky130_fd_sc_hd__tapvpwrvgnd_1
XTAP_178 vss vdd sky130_fd_sc_hd__tapvpwrvgnd_1
XTAP_189 vss vdd sky130_fd_sc_hd__tapvpwrvgnd_1
X_1484_ logical_tile_clb_mode_clb__0.mem_fle_2_in_1.DFF_1_.Q vss vss vdd vdd _0516_
+ sky130_fd_sc_hd__inv_2
X_2105_ logical_tile_clb_mode_clb__0.mux_fle_3_in_3.mux_l1_in_6_.TGATE_0_.out _0351_
+ vss vss vdd vdd logical_tile_clb_mode_clb__0.mux_fle_3_in_3.mux_l2_in_3_.TGATE_0_.out
+ sky130_fd_sc_hd__ebufn_1
X_2036_ _0008_ logical_tile_clb_mode_clb__0.logical_tile_clb_mode_default__fle_1.logical_tile_clb_mode_default__fle_mode_n1_lut4__ble4_0.direct_interc_4_.in
+ _0006_ _0007_ vss vss vdd vdd _2036_/Q logical_tile_clb_mode_clb__0.logical_tile_clb_mode_default__fle_1.logical_tile_clb_mode_default__fle_mode_n1_lut4__ble4_0.mux_ble4_out_0.INVTX1_0_.out
+ sky130_fd_sc_hd__dfbbn_1
X_0984_ logical_tile_clb_mode_clb__0.mem_fle_0_in_3.DFF_2_.Q vss vss vdd vdd _0293_
+ sky130_fd_sc_hd__clkbuf_1
X_1536_ _0176_ vss vss vdd vdd _0177_ sky130_fd_sc_hd__clkbuf_1
X_2585_ logical_tile_clb_mode_clb__0.logical_tile_clb_mode_default__fle_2.logical_tile_clb_mode_default__fle_mode_n1_lut4__ble4_0.logical_tile_clb_mode_default__fle_mode_n1_lut4__ble4_mode_default__lut4_0.lut4_0_.lut4_mux_0_.INVTX1_12_.out
+ _0831_ vss vss vdd vdd logical_tile_clb_mode_clb__0.logical_tile_clb_mode_default__fle_2.logical_tile_clb_mode_default__fle_mode_n1_lut4__ble4_0.logical_tile_clb_mode_default__fle_mode_n1_lut4__ble4_mode_default__lut4_0.lut4_0_.lut4_mux_0_.lut4_mux_basis_input2_mem1_6_out
+ sky130_fd_sc_hd__ebufn_1
X_1605_ _0195_ vss vss vdd vdd _0372_ sky130_fd_sc_hd__inv_2
X_2654_ logical_tile_clb_mode_clb__0.logical_tile_clb_mode_default__fle_0.logical_tile_clb_mode_default__fle_mode_n1_lut4__ble4_0.logical_tile_clb_mode_default__fle_mode_n1_lut4__ble4_mode_default__lut4_0.lut4_0_.lut4_mux_0_.INVTX1_14_.out
+ _0900_ vss vss vdd vdd logical_tile_clb_mode_clb__0.logical_tile_clb_mode_default__fle_0.logical_tile_clb_mode_default__fle_mode_n1_lut4__ble4_0.logical_tile_clb_mode_default__fle_mode_n1_lut4__ble4_mode_default__lut4_0.lut4_0_.lut4_mux_0_.lut4_mux_basis_input2_mem1_7_out
+ sky130_fd_sc_hd__ebufn_1
XFILLER_0_14_215 vss vss vdd vdd sky130_fd_sc_hd__fill_2
X_1398_ logical_tile_clb_mode_clb__0.mem_fle_2_in_2.DFF_2_.Q vss vss vdd vdd _0127_
+ sky130_fd_sc_hd__clkbuf_1
X_1467_ logical_tile_clb_mode_clb__0.mem_fle_2_in_1.DFF_2_.Q vss vss vdd vdd _0151_
+ sky130_fd_sc_hd__clkbuf_1
X_2019_ clknet_4_4_0_prog_clk net138 vss vss vdd vdd logical_tile_clb_mode_clb__0.logical_tile_clb_mode_default__fle_2.ccff_tail
+ sky130_fd_sc_hd__dfxtp_1
XFILLER_0_9_297 vss vss vdd vdd sky130_fd_sc_hd__fill_2
XFILLER_0_13_270 vss vss vdd vdd sky130_fd_sc_hd__fill_1
XFILLER_0_20_229 vss vss vdd vdd sky130_fd_sc_hd__fill_1
Xclkbuf_4_6_0_prog_clk clknet_0_prog_clk vss vss vdd vdd clknet_4_6_0_prog_clk sky130_fd_sc_hd__clkbuf_8
X_1321_ logical_tile_clb_mode_clb__0.logical_tile_clb_mode_default__fle_2.logical_tile_clb_mode_default__fle_mode_n1_lut4__ble4_0.logical_tile_clb_mode_default__fle_mode_n1_lut4__ble4_mode_default__lut4_0.lut4_0_.INVTX1_0_.out
+ vss vss vdd vdd _0099_ sky130_fd_sc_hd__buf_6
X_1252_ logical_tile_clb_mode_clb__0.logical_tile_clb_mode_default__fle_1.logical_tile_clb_mode_default__fle_mode_n1_lut4__ble4_0.logical_tile_clb_mode_default__fle_mode_n1_lut4__ble4_mode_default__lut4_0.lut4_0_.INVTX1_2_.out
+ vss vss vdd vdd _0075_ sky130_fd_sc_hd__clkbuf_1
X_2370_ logical_tile_clb_mode_clb__0.mux_fle_1_in_2.mux_l1_in_5_.TGATE_0_.out _0616_
+ vss vss vdd vdd logical_tile_clb_mode_clb__0.mux_fle_1_in_2.mux_l2_in_2_.TGATE_0_.out
+ sky130_fd_sc_hd__ebufn_1
X_1183_ logical_tile_clb_mode_clb__0.mem_fle_1_in_3.DFF_1_.Q vss vss vdd vdd _0573_
+ sky130_fd_sc_hd__inv_2
X_0967_ _0287_ vss vss vdd vdd _0701_ sky130_fd_sc_hd__clkbuf_1
X_1519_ logical_tile_clb_mode_clb__0.logical_tile_clb_mode_default__fle_3.logical_tile_clb_mode_default__fle_mode_n1_lut4__ble4_0.logical_tile_clb_mode_default__fle_mode_n1_lut4__ble4_mode_default__lut4_0.lut4_0_.INVTX1_1_.out
+ vss vss vdd vdd _0816_ sky130_fd_sc_hd__inv_2
X_2568_ logical_tile_clb_mode_clb__0.logical_tile_clb_mode_default__fle_3.logical_tile_clb_mode_default__fle_mode_n1_lut4__ble4_0.logical_tile_clb_mode_default__fle_mode_n1_lut4__ble4_mode_default__lut4_0.lut4_0_.lut4_mux_0_.lut4_mux_basis_input2_mem1_1_out
+ _0814_ vss vss vdd vdd logical_tile_clb_mode_clb__0.logical_tile_clb_mode_default__fle_3.logical_tile_clb_mode_default__fle_mode_n1_lut4__ble4_0.logical_tile_clb_mode_default__fle_mode_n1_lut4__ble4_mode_default__lut4_0.lut4_0_.lut4_mux_0_.lut4_mux_basis_input2_mem1_8_out
+ sky130_fd_sc_hd__ebufn_1
X_2637_ logical_tile_clb_mode_clb__0.logical_tile_clb_mode_default__fle_1.logical_tile_clb_mode_default__fle_mode_n1_lut4__ble4_0.logical_tile_clb_mode_default__fle_mode_n1_lut4__ble4_mode_default__lut4_0.lut4_0_.lut4_mux_0_.lut4_mux_basis_input2_mem1_3_out
+ _0883_ vss vss vdd vdd logical_tile_clb_mode_clb__0.logical_tile_clb_mode_default__fle_1.logical_tile_clb_mode_default__fle_mode_n1_lut4__ble4_0.logical_tile_clb_mode_default__fle_mode_n1_lut4__ble4_mode_default__lut4_0.lut4_0_.lut4_mux_0_.lut4_mux_basis_input2_mem1_9_out
+ sky130_fd_sc_hd__ebufn_1
XFILLER_0_10_251 vss vss vdd vdd sky130_fd_sc_hd__fill_1
X_2499_ logical_tile_clb_mode_clb__0.mux_fle_0_in_1.mux_l2_in_2_.TGATE_0_.out _0745_
+ vss vss vdd vdd logical_tile_clb_mode_clb__0.mux_fle_0_in_1.mux_l3_in_1_.TGATE_0_.out
+ sky130_fd_sc_hd__ebufn_1
XFILLER_0_37_148 vss vss vdd vdd sky130_fd_sc_hd__fill_1
XFILLER_0_36_192 vss vss vdd vdd sky130_fd_sc_hd__fill_1
X_1870_ logical_tile_clb_mode_clb__0.logical_tile_clb_mode_default__fle_2.logical_tile_clb_mode_default__fle_mode_n1_lut4__ble4_0.logical_tile_clb_mode_default__fle_mode_n1_lut4__ble4_mode_default__lut4_0.lut4_0_.lut4_mux_0_.INVTX1_9_.in
+ vss vss vdd vdd logical_tile_clb_mode_clb__0.logical_tile_clb_mode_default__fle_2.logical_tile_clb_mode_default__fle_mode_n1_lut4__ble4_0.logical_tile_clb_mode_default__fle_mode_n1_lut4__ble4_mode_default__lut4_0.lut4_0_.lut4_mux_0_.INVTX1_9_.out
+ sky130_fd_sc_hd__inv_2
XFILLER_0_10_20 vss vss vdd vdd sky130_fd_sc_hd__fill_2
X_2353_ net22 _0599_ vss vss vdd vdd logical_tile_clb_mode_clb__0.mux_fle_1_in_2.mux_l1_in_6_.TGATE_0_.out
+ sky130_fd_sc_hd__ebufn_1
X_2422_ net21 _0668_ vss vss vdd vdd logical_tile_clb_mode_clb__0.mux_fle_1_in_0.mux_l1_in_5_.TGATE_0_.out
+ sky130_fd_sc_hd__ebufn_1
X_1304_ logical_tile_clb_mode_clb__0.mem_fle_1_in_0.DFF_3_.Q vss vss vdd vdd _0093_
+ sky130_fd_sc_hd__clkbuf_1
X_1235_ logical_tile_clb_mode_clb__0.mem_fle_1_in_2.DFF_0_.Q vss vss vdd vdd _0070_
+ sky130_fd_sc_hd__clkbuf_1
X_1166_ logical_tile_clb_mode_clb__0.mem_fle_1_in_3.DFF_1_.Q vss vss vdd vdd _0046_
+ sky130_fd_sc_hd__clkbuf_1
X_2284_ logical_tile_clb_mode_clb__0.mux_fle_2_in_1.mux_l1_in_1_.TGATE_0_.out _0530_
+ vss vss vdd vdd logical_tile_clb_mode_clb__0.mux_fle_2_in_1.mux_l2_in_0_.TGATE_0_.out
+ sky130_fd_sc_hd__ebufn_1
XFILLER_0_35_83 vss vss vdd vdd sky130_fd_sc_hd__fill_2
XFILLER_0_19_159 vss vss vdd vdd sky130_fd_sc_hd__fill_1
X_1097_ _0020_ vss vss vdd vdd _0749_ sky130_fd_sc_hd__clkbuf_1
X_1999_ clknet_4_14_0_prog_clk net193 vss vss vdd vdd logical_tile_clb_mode_clb__0.mem_fle_0_in_0.DFF_2_.Q
+ sky130_fd_sc_hd__dfxtp_1
XFILLER_0_27_192 vss vss vdd vdd sky130_fd_sc_hd__decap_3
XFILLER_0_33_140 vss vss vdd vdd sky130_fd_sc_hd__fill_2
X_1020_ _0305_ vss vss vdd vdd _0731_ sky130_fd_sc_hd__clkbuf_1
X_1922_ clknet_4_10_0_prog_clk net116 vss vss vdd vdd logical_tile_clb_mode_clb__0.logical_tile_clb_mode_default__fle_0.logical_tile_clb_mode_default__fle_mode_n1_lut4__ble4_0.logical_tile_clb_mode_default__fle_mode_n1_lut4__ble4_mode_default__lut4_0.lut4_0_.lut4_mux_0_.INVTX1_11_.in
+ sky130_fd_sc_hd__dfxtp_1
X_1853_ logical_tile_clb_mode_clb__0.logical_tile_clb_mode_default__fle_3.logical_tile_clb_mode_default__fle_mode_n1_lut4__ble4_0.logical_tile_clb_mode_default__fle_mode_n1_lut4__ble4_mode_default__lut4_0.lut4_0_.lut4_mux_0_.INVTX1_10_.in
+ vss vss vdd vdd logical_tile_clb_mode_clb__0.logical_tile_clb_mode_default__fle_3.logical_tile_clb_mode_default__fle_mode_n1_lut4__ble4_0.logical_tile_clb_mode_default__fle_mode_n1_lut4__ble4_mode_default__lut4_0.lut4_0_.lut4_mux_0_.INVTX1_10_.out
+ sky130_fd_sc_hd__inv_2
X_1784_ logical_tile_clb_mode_clb__0.mem_fle_1_in_0.DFF_0_.Q vss vss vdd vdd _0263_
+ sky130_fd_sc_hd__clkbuf_1
XFILLER_0_21_74 vss vss vdd vdd sky130_fd_sc_hd__fill_1
X_2336_ net32 _0582_ vss vss vdd vdd logical_tile_clb_mode_clb__0.mux_fle_1_in_3.mux_l1_in_3_.TGATE_0_.out
+ sky130_fd_sc_hd__ebufn_1
X_2405_ net38 _0651_ vss vss vdd vdd logical_tile_clb_mode_clb__0.mux_fle_1_in_0.mux_l1_in_2_.TGATE_0_.out
+ sky130_fd_sc_hd__ebufn_1
X_2198_ net20 _0444_ vss vss vdd vdd logical_tile_clb_mode_clb__0.mux_fle_3_in_0.mux_l1_in_5_.TGATE_0_.out
+ sky130_fd_sc_hd__ebufn_1
XFILLER_0_27_3 vss vss vdd vdd sky130_fd_sc_hd__decap_3
X_1149_ logical_tile_clb_mode_clb__0.logical_tile_clb_mode_default__fle_1.logical_tile_clb_mode_default__fle_mode_n1_lut4__ble4_0.logical_tile_clb_mode_default__fle_mode_n1_lut4__ble4_mode_default__lut4_0.lut4_0_.INVTX1_1_.out
+ vss vss vdd vdd _0039_ sky130_fd_sc_hd__clkbuf_1
X_1218_ _0064_ vss vss vdd vdd _0613_ sky130_fd_sc_hd__clkbuf_1
X_2267_ net30 _0513_ vss vss vdd vdd logical_tile_clb_mode_clb__0.mux_fle_2_in_1.mux_l1_in_4_.TGATE_0_.out
+ sky130_fd_sc_hd__ebufn_1
Xhold42 logical_tile_clb_mode_clb__0.logical_tile_clb_mode_default__fle_3.logical_tile_clb_mode_default__fle_mode_n1_lut4__ble4_0.logical_tile_clb_mode_default__fle_mode_n1_lut4__ble4_mode_default__lut4_0.lut4_0_.lut4_mux_0_.INVTX1_6_.in
+ vss vss vdd vdd net109 sky130_fd_sc_hd__dlygate4sd3_1
Xhold20 logical_tile_clb_mode_clb__0.logical_tile_clb_mode_default__fle_3.logical_tile_clb_mode_default__fle_mode_n1_lut4__ble4_0.logical_tile_clb_mode_default__fle_mode_n1_lut4__ble4_mode_default__lut4_0.lut4_0_.lut4_mux_0_.INVTX1_13_.in
+ vss vss vdd vdd net87 sky130_fd_sc_hd__dlygate4sd3_1
Xhold86 logical_tile_clb_mode_clb__0.mem_fle_0_in_0.DFF_0_.Q vss vss vdd vdd net153
+ sky130_fd_sc_hd__dlygate4sd3_1
Xhold53 logical_tile_clb_mode_clb__0.logical_tile_clb_mode_default__fle_1.logical_tile_clb_mode_default__fle_mode_n1_lut4__ble4_0.logical_tile_clb_mode_default__fle_mode_n1_lut4__ble4_mode_default__lut4_0.lut4_0_.lut4_mux_0_.INVTX1_5_.in
+ vss vss vdd vdd net120 sky130_fd_sc_hd__dlygate4sd3_1
Xhold64 logical_tile_clb_mode_clb__0.logical_tile_clb_mode_default__fle_1.logical_tile_clb_mode_default__fle_mode_n1_lut4__ble4_0.logical_tile_clb_mode_default__fle_mode_n1_lut4__ble4_mode_default__lut4_0.lut4_0_.lut4_mux_0_.INVTX1_2_.in
+ vss vss vdd vdd net131 sky130_fd_sc_hd__dlygate4sd3_1
Xhold31 logical_tile_clb_mode_clb__0.logical_tile_clb_mode_default__fle_0.logical_tile_clb_mode_default__fle_mode_n1_lut4__ble4_0.logical_tile_clb_mode_default__fle_mode_n1_lut4__ble4_mode_default__lut4_0.lut4_0_.lut4_mux_0_.INVTX1_6_.in
+ vss vss vdd vdd net98 sky130_fd_sc_hd__dlygate4sd3_1
Xhold97 logical_tile_clb_mode_clb__0.mem_fle_0_in_3.DFF_1_.Q vss vss vdd vdd net164
+ sky130_fd_sc_hd__dlygate4sd3_1
XFILLER_0_42_29 vss vss vdd vdd sky130_fd_sc_hd__fill_2
XFILLER_0_38_221 vss vss vdd vdd sky130_fd_sc_hd__fill_1
XTAP_338 vss vdd sky130_fd_sc_hd__tapvpwrvgnd_1
XTAP_327 vss vdd sky130_fd_sc_hd__tapvpwrvgnd_1
XTAP_316 vss vdd sky130_fd_sc_hd__tapvpwrvgnd_1
XTAP_305 vss vdd sky130_fd_sc_hd__tapvpwrvgnd_1
XFILLER_0_21_154 vss vss vdd vdd sky130_fd_sc_hd__fill_2
X_2121_ logical_tile_clb_mode_clb__0.mux_fle_3_in_3.mux_l2_in_3_.TGATE_0_.out _0367_
+ vss vss vdd vdd logical_tile_clb_mode_clb__0.mux_fle_3_in_3.mux_l3_in_1_.TGATE_0_.out
+ sky130_fd_sc_hd__ebufn_1
X_2052_ clknet_4_2_0_prog_clk net105 vss vss vdd vdd logical_tile_clb_mode_clb__0.logical_tile_clb_mode_default__fle_1.logical_tile_clb_mode_default__fle_mode_n1_lut4__ble4_0.logical_tile_clb_mode_default__fle_mode_n1_lut4__ble4_mode_default__lut4_0.lut4_0_.lut4_mux_0_.INVTX1_2_.in
+ sky130_fd_sc_hd__dfxtp_1
X_1003_ _0299_ vss vss vdd vdd _0691_ sky130_fd_sc_hd__clkbuf_1
XFILLER_0_13_9 vss vss vdd vdd sky130_fd_sc_hd__fill_2
XFILLER_0_16_85 vss vss vdd vdd sky130_fd_sc_hd__fill_1
X_1905_ logical_tile_clb_mode_clb__0.logical_tile_clb_mode_default__fle_0.logical_tile_clb_mode_default__fle_mode_n1_lut4__ble4_0.logical_tile_clb_mode_default__fle_mode_n1_lut4__ble4_mode_default__lut4_0.lut4_0_.lut4_mux_0_.INVTX1_8_.in
+ vss vss vdd vdd logical_tile_clb_mode_clb__0.logical_tile_clb_mode_default__fle_0.logical_tile_clb_mode_default__fle_mode_n1_lut4__ble4_0.logical_tile_clb_mode_default__fle_mode_n1_lut4__ble4_mode_default__lut4_0.lut4_0_.lut4_mux_0_.INVTX1_8_.out
+ sky130_fd_sc_hd__inv_2
X_1836_ net13 vss vss vdd vdd logical_tile_clb_mode_clb__0.mux_fle_0_in_0.INVTX1_4_.out
+ sky130_fd_sc_hd__inv_2
X_1698_ logical_tile_clb_mode_clb__0.mem_fle_3_in_0.DFF_0_.Q vss vss vdd vdd _0235_
+ sky130_fd_sc_hd__clkbuf_1
X_1767_ _0257_ vss vss vdd vdd _0667_ sky130_fd_sc_hd__clkbuf_1
X_2319_ net46 _0565_ vss vss vdd vdd logical_tile_clb_mode_clb__0.mux_fle_1_in_3.mux_l1_in_0_.TGATE_0_.out
+ sky130_fd_sc_hd__ebufn_1
X_1621_ _0207_ vss vss vdd vdd _0803_ sky130_fd_sc_hd__clkbuf_1
X_1552_ logical_tile_clb_mode_clb__0.mem_fle_3_in_3.DFF_0_.Q vss vss vdd vdd _0183_
+ sky130_fd_sc_hd__clkbuf_1