* NGSPICE file created from sb_0__1_.ext - technology: sky130A

* Black-box entry subcircuit for sky130_ef_sc_hd__decap_12 abstract view
.subckt sky130_ef_sc_hd__decap_12 VGND VNB VPB VPWR
.ends

* Black-box entry subcircuit for sky130_fd_sc_hd__clkbuf_1 abstract view
.subckt sky130_fd_sc_hd__clkbuf_1 A VGND VNB VPB VPWR X
.ends

* Black-box entry subcircuit for sky130_fd_sc_hd__ebufn_1 abstract view
.subckt sky130_fd_sc_hd__ebufn_1 A TE_B VGND VNB VPB VPWR Z
.ends

* Black-box entry subcircuit for sky130_fd_sc_hd__inv_2 abstract view
.subckt sky130_fd_sc_hd__inv_2 A VGND VNB VPB VPWR Y
.ends

* Black-box entry subcircuit for sky130_fd_sc_hd__fill_1 abstract view
.subckt sky130_fd_sc_hd__fill_1 VGND VNB VPB VPWR
.ends

* Black-box entry subcircuit for sky130_fd_sc_hd__fill_2 abstract view
.subckt sky130_fd_sc_hd__fill_2 VGND VNB VPB VPWR
.ends

* Black-box entry subcircuit for sky130_fd_sc_hd__dlygate4sd3_1 abstract view
.subckt sky130_fd_sc_hd__dlygate4sd3_1 A VGND VNB VPB VPWR X
.ends

* Black-box entry subcircuit for sky130_fd_sc_hd__clkbuf_4 abstract view
.subckt sky130_fd_sc_hd__clkbuf_4 A VGND VNB VPB VPWR X
.ends

* Black-box entry subcircuit for sky130_fd_sc_hd__tapvpwrvgnd_1 abstract view
.subckt sky130_fd_sc_hd__tapvpwrvgnd_1 VGND VPWR
.ends

* Black-box entry subcircuit for sky130_fd_sc_hd__decap_4 abstract view
.subckt sky130_fd_sc_hd__decap_4 VGND VNB VPB VPWR
.ends

* Black-box entry subcircuit for sky130_fd_sc_hd__decap_6 abstract view
.subckt sky130_fd_sc_hd__decap_6 VGND VNB VPB VPWR
.ends

* Black-box entry subcircuit for sky130_fd_sc_hd__decap_3 abstract view
.subckt sky130_fd_sc_hd__decap_3 VGND VNB VPB VPWR
.ends

* Black-box entry subcircuit for sky130_fd_sc_hd__decap_8 abstract view
.subckt sky130_fd_sc_hd__decap_8 VGND VNB VPB VPWR
.ends

* Black-box entry subcircuit for sky130_fd_sc_hd__buf_1 abstract view
.subckt sky130_fd_sc_hd__buf_1 A VGND VNB VPB VPWR X
.ends

* Black-box entry subcircuit for sky130_fd_sc_hd__clkbuf_16 abstract view
.subckt sky130_fd_sc_hd__clkbuf_16 A VGND VNB VPB VPWR X
.ends

* Black-box entry subcircuit for sky130_fd_sc_hd__ebufn_2 abstract view
.subckt sky130_fd_sc_hd__ebufn_2 A TE_B VGND VNB VPB VPWR Z
.ends

* Black-box entry subcircuit for sky130_fd_sc_hd__conb_1 abstract view
.subckt sky130_fd_sc_hd__conb_1 VGND VNB VPB VPWR HI LO
.ends

* Black-box entry subcircuit for sky130_fd_sc_hd__dfxtp_1 abstract view
.subckt sky130_fd_sc_hd__dfxtp_1 CLK D VGND VNB VPB VPWR Q
.ends

* Black-box entry subcircuit for sky130_fd_sc_hd__dfxtp_2 abstract view
.subckt sky130_fd_sc_hd__dfxtp_2 CLK D VGND VNB VPB VPWR Q
.ends

.subckt sb_0__1_ bottom_left_grid_right_width_0_height_0_subtile_0__pin_inpad_0_ bottom_right_grid_left_width_0_height_0_subtile_0__pin_O_1_
+ ccff_head ccff_tail chanx_right_in[0] chanx_right_in[1] chanx_right_in[2] chanx_right_in[3]
+ chanx_right_in[4] chanx_right_in[5] chanx_right_in[6] chanx_right_in[7] chanx_right_in[8]
+ chanx_right_out[0] chanx_right_out[1] chanx_right_out[2] chanx_right_out[3] chanx_right_out[4]
+ chanx_right_out[5] chanx_right_out[6] chanx_right_out[7] chanx_right_out[8] chany_bottom_in[0]
+ chany_bottom_in[1] chany_bottom_in[2] chany_bottom_in[3] chany_bottom_in[4] chany_bottom_in[5]
+ chany_bottom_in[6] chany_bottom_in[7] chany_bottom_in[8] chany_bottom_out[0] chany_bottom_out[1]
+ chany_bottom_out[2] chany_bottom_out[3] chany_bottom_out[4] chany_bottom_out[5]
+ chany_bottom_out[6] chany_bottom_out[7] chany_bottom_out[8] chany_top_in[0] chany_top_in[1]
+ chany_top_in[2] chany_top_in[3] chany_top_in[4] chany_top_in[5] chany_top_in[6]
+ chany_top_in[7] chany_top_in[8] chany_top_out[0] chany_top_out[1] chany_top_out[2]
+ chany_top_out[3] chany_top_out[4] chany_top_out[5] chany_top_out[6] chany_top_out[7]
+ chany_top_out[8] prog_clk right_bottom_grid_top_width_0_height_0_subtile_0__pin_O_2_
+ right_top_grid_bottom_width_0_height_0_subtile_0__pin_O_0_ top_left_grid_right_width_0_height_0_subtile_0__pin_inpad_0_
+ top_right_grid_left_width_0_height_0_subtile_0__pin_O_1_ vdd vss
XFILLER_0_23_29 vss vss vdd vdd sky130_ef_sc_hd__decap_12
X_432_ net15 vss vss vdd vdd net56 sky130_fd_sc_hd__clkbuf_1
X_501_ mux_bottom_track_17.INVTX1_2_.out _119_ vss vss vdd vdd mux_bottom_track_17.mux_l1_in_1_.TGATE_0_.out
+ sky130_fd_sc_hd__ebufn_1
X_363_ net18 vss vss vdd vdd mux_right_track_6.INVTX1_2_.out sky130_fd_sc_hd__inv_2
X_294_ mem_top_track_16.DFF_0_.D vss vss vdd vdd _071_ sky130_fd_sc_hd__inv_2
XFILLER_0_13_84 vss vss vdd vdd sky130_fd_sc_hd__fill_1
XFILLER_0_1_163 vss vss vdd vdd sky130_fd_sc_hd__fill_2
X_346_ net23 vss vss vdd vdd mux_bottom_track_9.INVTX1_0_.out sky130_fd_sc_hd__inv_2
XFILLER_0_18_29 vss vss vdd vdd sky130_ef_sc_hd__decap_12
XFILLER_0_24_72 vss vss vdd vdd sky130_ef_sc_hd__decap_12
XFILLER_0_24_50 vss vss vdd vdd sky130_fd_sc_hd__fill_2
X_277_ mem_bottom_track_1.DFF_1_.Q vss vss vdd vdd _085_ sky130_fd_sc_hd__inv_2
X_200_ _009_ vss vss vdd vdd _140_ sky130_fd_sc_hd__clkbuf_1
X_329_ _052_ vss vss vdd vdd _058_ sky130_fd_sc_hd__clkbuf_1
XFILLER_0_0_29 vss vss vdd vdd sky130_fd_sc_hd__fill_1
XFILLER_0_1_61 vss vss vdd vdd sky130_fd_sc_hd__fill_1
Xhold30 mem_bottom_track_1.DFF_0_.Q vss vss vdd vdd net105 sky130_fd_sc_hd__dlygate4sd3_1
XFILLER_0_8_147 vss vss vdd vdd sky130_fd_sc_hd__fill_2
XFILLER_0_8_158 vss vss vdd vdd sky130_fd_sc_hd__fill_1
Xoutput42 net42 vss vss vdd vdd chanx_right_out[6] sky130_fd_sc_hd__clkbuf_4
Xoutput53 net53 vss vss vdd vdd chany_top_out[0] sky130_fd_sc_hd__clkbuf_4
XTAP_112 vss vdd sky130_fd_sc_hd__tapvpwrvgnd_1
XTAP_101 vss vdd sky130_fd_sc_hd__tapvpwrvgnd_1
X_362_ net30 vss vss vdd vdd mux_right_track_6.INVTX1_1_.out sky130_fd_sc_hd__inv_2
X_500_ mux_bottom_track_17.mux_l1_in_0_.TGATE_0_.out _118_ vss vss vdd vdd mux_bottom_track_17.mux_l2_in_0_.TGATE_0_.out
+ sky130_fd_sc_hd__ebufn_1
X_293_ _040_ vss vss vdd vdd _078_ sky130_fd_sc_hd__clkbuf_1
X_431_ net17 vss vss vdd vdd net58 sky130_fd_sc_hd__clkbuf_1
X_345_ net27 vss vss vdd vdd mux_bottom_track_9.INVTX1_1_.out sky130_fd_sc_hd__inv_2
X_276_ mem_bottom_track_1.DFF_2_.Q vss vss vdd vdd _083_ sky130_fd_sc_hd__inv_2
X_259_ mem_bottom_track_9.DFF_1_.Q vss vss vdd vdd _097_ sky130_fd_sc_hd__inv_2
XFILLER_0_10_20 vss vss vdd vdd sky130_fd_sc_hd__fill_2
X_328_ mem_top_track_0.DFF_1_.Q vss vss vdd vdd _052_ sky130_fd_sc_hd__clkbuf_1
XFILLER_0_9_17 vss vss vdd vdd sky130_fd_sc_hd__fill_2
XFILLER_0_19_40 vss vss vdd vdd sky130_fd_sc_hd__decap_4
Xhold31 mem_right_track_10.DFF_0_.Q vss vss vdd vdd net106 sky130_fd_sc_hd__dlygate4sd3_1
XFILLER_0_15_140 vss vss vdd vdd sky130_fd_sc_hd__fill_1
Xhold20 mem_right_track_12.DFF_0_.Q vss vss vdd vdd net95 sky130_fd_sc_hd__dlygate4sd3_1
XFILLER_0_1_73 vss vss vdd vdd sky130_fd_sc_hd__fill_1
XFILLER_0_16_41 vss vss vdd vdd sky130_fd_sc_hd__fill_1
Xoutput43 net43 vss vss vdd vdd chanx_right_out[7] sky130_fd_sc_hd__clkbuf_4
Xoutput54 net54 vss vss vdd vdd chany_top_out[1] sky130_fd_sc_hd__clkbuf_4
XTAP_113 vss vdd sky130_fd_sc_hd__tapvpwrvgnd_1
XTAP_102 vss vdd sky130_fd_sc_hd__tapvpwrvgnd_1
X_361_ mux_right_track_6.mux_l2_in_0_.TGATE_0_.out vss vss vdd vdd net39 sky130_fd_sc_hd__inv_2
X_292_ mem_bottom_track_1.DFF_1_.Q vss vss vdd vdd _040_ sky130_fd_sc_hd__clkbuf_1
X_430_ net18 vss vss vdd vdd net59 sky130_fd_sc_hd__clkbuf_1
X_275_ _034_ vss vss vdd vdd _090_ sky130_fd_sc_hd__clkbuf_1
X_344_ net4 vss vss vdd vdd mux_bottom_track_9.INVTX1_2_.out sky130_fd_sc_hd__inv_2
XFILLER_0_24_85 vss vss vdd vdd sky130_fd_sc_hd__fill_1
X_258_ mem_bottom_track_17.DFF_0_.D vss vss vdd vdd _095_ sky130_fd_sc_hd__inv_2
X_327_ _051_ vss vss vdd vdd _056_ sky130_fd_sc_hd__clkbuf_1
X_189_ mem_right_track_12.DFF_0_.Q vss vss vdd vdd _149_ sky130_fd_sc_hd__inv_2
XFILLER_0_24_141 vss vss vdd vdd sky130_fd_sc_hd__decap_6
XFILLER_0_21_53 vss vss vdd vdd sky130_fd_sc_hd__decap_3
XFILLER_0_16_108 vss vss vdd vdd sky130_fd_sc_hd__fill_1
XFILLER_0_21_111 vss vss vdd vdd sky130_fd_sc_hd__fill_1
Xhold21 mem_right_track_6.DFF_0_.Q vss vss vdd vdd net96 sky130_fd_sc_hd__dlygate4sd3_1
Xhold10 mem_top_track_0.DFF_2_.Q vss vss vdd vdd net85 sky130_fd_sc_hd__dlygate4sd3_1
Xoutput44 net44 vss vss vdd vdd chany_bottom_out[0] sky130_fd_sc_hd__clkbuf_4
Xoutput55 net55 vss vss vdd vdd chany_top_out[2] sky130_fd_sc_hd__clkbuf_4
XTAP_114 vss vdd sky130_fd_sc_hd__tapvpwrvgnd_1
XTAP_103 vss vdd sky130_fd_sc_hd__tapvpwrvgnd_1
XFILLER_0_5_119 vss vss vdd vdd sky130_fd_sc_hd__fill_2
X_360_ net19 vss vss vdd vdd mux_right_track_4.INVTX1_2_.out sky130_fd_sc_hd__inv_2
X_291_ _039_ vss vss vdd vdd _080_ sky130_fd_sc_hd__clkbuf_1
XFILLER_0_4_141 vss vss vdd vdd sky130_fd_sc_hd__fill_1
X_489_ mux_right_track_4.INVTX1_2_.out _107_ vss vss vdd vdd mux_top_track_16.mux_l2_in_1_.TGATE_0_.out
+ sky130_fd_sc_hd__ebufn_1
X_274_ mem_bottom_track_9.DFF_1_.Q vss vss vdd vdd _034_ sky130_fd_sc_hd__clkbuf_1
X_343_ net7 vss vss vdd vdd mux_bottom_track_9.INVTX1_3_.out sky130_fd_sc_hd__inv_2
X_257_ _028_ vss vss vdd vdd _102_ sky130_fd_sc_hd__clkbuf_1
X_326_ mem_top_track_0.DFF_0_.Q vss vss vdd vdd _051_ sky130_fd_sc_hd__clkbuf_1
X_188_ _005_ vss vss vdd vdd _145_ sky130_fd_sc_hd__clkbuf_1
XFILLER_0_21_21 vss vss vdd vdd sky130_ef_sc_hd__decap_12
X_309_ _045_ vss vss vdd vdd _068_ sky130_fd_sc_hd__clkbuf_1
XFILLER_0_15_131 vss vss vdd vdd sky130_fd_sc_hd__fill_1
Xhold11 mem_right_track_6.DFF_1_.Q vss vss vdd vdd net86 sky130_fd_sc_hd__dlygate4sd3_1
Xhold22 mem_top_track_16.DFF_1_.Q vss vss vdd vdd net97 sky130_fd_sc_hd__dlygate4sd3_1
Xoutput45 net45 vss vss vdd vdd chany_bottom_out[1] sky130_fd_sc_hd__clkbuf_4
Xoutput56 net56 vss vss vdd vdd chany_top_out[3] sky130_fd_sc_hd__clkbuf_4
XTAP_115 vss vdd sky130_fd_sc_hd__tapvpwrvgnd_1
XTAP_104 vss vdd sky130_fd_sc_hd__tapvpwrvgnd_1
XFILLER_0_13_55 vss vss vdd vdd sky130_fd_sc_hd__fill_1
XFILLER_0_13_11 vss vss vdd vdd sky130_fd_sc_hd__decap_3
X_488_ mux_top_track_16.mux_l2_in_0_.TGATE_0_.out _106_ vss vss vdd vdd mux_top_track_16.mux_l3_in_0_.TGATE_0_.out
+ sky130_fd_sc_hd__ebufn_1
X_290_ mem_bottom_track_1.DFF_0_.Q vss vss vdd vdd _039_ sky130_fd_sc_hd__clkbuf_1
X_273_ _033_ vss vss vdd vdd _092_ sky130_fd_sc_hd__clkbuf_1
X_342_ net10 vss vss vdd vdd mux_bottom_track_9.INVTX1_4_.out sky130_fd_sc_hd__inv_2
X_256_ mem_top_track_16.DFF_1_.Q vss vss vdd vdd _028_ sky130_fd_sc_hd__clkbuf_1
X_325_ mem_top_track_0.DFF_0_.Q vss vss vdd vdd _059_ sky130_fd_sc_hd__inv_2
X_187_ mem_right_track_12.DFF_1_.Q vss vss vdd vdd _005_ sky130_fd_sc_hd__clkbuf_1
XFILLER_0_10_12 vss vss vdd vdd sky130_fd_sc_hd__decap_8
XFILLER_0_21_33 vss vss vdd vdd sky130_ef_sc_hd__decap_12
XFILLER_0_1_65 vss vss vdd vdd sky130_fd_sc_hd__fill_2
XFILLER_0_1_54 vss vss vdd vdd sky130_fd_sc_hd__fill_2
X_239_ _022_ vss vss vdd vdd _111_ sky130_fd_sc_hd__buf_1
X_308_ mem_top_track_8.DFF_0_.Q vss vss vdd vdd _045_ sky130_fd_sc_hd__clkbuf_1
Xhold12 mem_right_track_10.DFF_0_.D vss vss vdd vdd net87 sky130_fd_sc_hd__dlygate4sd3_1
XFILLER_0_15_121 vss vss vdd vdd sky130_fd_sc_hd__fill_1
Xhold23 mem_top_track_0.DFF_1_.Q vss vss vdd vdd net98 sky130_fd_sc_hd__dlygate4sd3_1
XFILLER_0_16_88 vss vss vdd vdd sky130_fd_sc_hd__fill_1
Xclkbuf_2_3__f_prog_clk clknet_0_prog_clk vss vss vdd vdd clknet_2_3__leaf_prog_clk
+ sky130_fd_sc_hd__clkbuf_16
Xoutput46 net46 vss vss vdd vdd chany_bottom_out[2] sky130_fd_sc_hd__clkbuf_4
Xoutput35 net35 vss vss vdd vdd ccff_tail sky130_fd_sc_hd__clkbuf_4
Xoutput57 net57 vss vss vdd vdd chany_top_out[4] sky130_fd_sc_hd__clkbuf_4
XFILLER_0_7_162 vss vss vdd vdd sky130_fd_sc_hd__fill_1
XTAP_116 vss vdd sky130_fd_sc_hd__tapvpwrvgnd_1
XTAP_105 vss vdd sky130_fd_sc_hd__tapvpwrvgnd_1
XFILLER_0_11_9 vss vss vdd vdd sky130_ef_sc_hd__decap_12
XFILLER_0_7_31 vss vss vdd vdd sky130_fd_sc_hd__fill_1
XFILLER_0_1_113 vss vss vdd vdd sky130_fd_sc_hd__fill_1
X_487_ mux_bottom_track_9.INVTX1_3_.out _105_ vss vss vdd vdd mux_top_track_16.mux_l1_in_0_.TGATE_0_.out
+ sky130_fd_sc_hd__ebufn_1
X_341_ mux_bottom_track_9.mux_l3_in_0_.TGATE_0_.out vss vss vdd vdd net48 sky130_fd_sc_hd__inv_2
X_272_ mem_bottom_track_9.DFF_0_.Q vss vss vdd vdd _033_ sky130_fd_sc_hd__clkbuf_1
XFILLER_0_24_55 vss vss vdd vdd sky130_fd_sc_hd__fill_1
X_539_ mux_right_track_14.mux_l1_in_0_.TGATE_0_.out _157_ vss vss vdd vdd mux_right_track_14.mux_l2_in_0_.TGATE_0_.out
+ sky130_fd_sc_hd__ebufn_2
XFILLER_0_4_21 vss vss vdd vdd sky130_fd_sc_hd__decap_6
X_255_ mem_top_track_16.DFF_1_.Q vss vss vdd vdd _107_ sky130_fd_sc_hd__inv_2
X_186_ _004_ vss vss vdd vdd _147_ sky130_fd_sc_hd__clkbuf_1
XFILLER_0_10_68 vss vss vdd vdd sky130_fd_sc_hd__fill_1
X_324_ mem_top_track_0.DFF_1_.Q vss vss vdd vdd _061_ sky130_fd_sc_hd__inv_2
X_533__74 vss vss vdd vdd net74 _533__74/LO sky130_fd_sc_hd__conb_1
XFILLER_0_19_44 vss vss vdd vdd sky130_fd_sc_hd__fill_1
Xclkbuf_2_2__f_prog_clk clknet_0_prog_clk vss vss vdd vdd clknet_2_2__leaf_prog_clk
+ sky130_fd_sc_hd__clkbuf_16
XFILLER_0_24_166 vss vss vdd vdd sky130_fd_sc_hd__fill_2
XFILLER_0_21_45 vss vss vdd vdd sky130_fd_sc_hd__decap_8
X_238_ net35 vss vss vdd vdd _022_ sky130_fd_sc_hd__clkbuf_1
XFILLER_0_1_22 vss vss vdd vdd sky130_ef_sc_hd__decap_12
X_307_ mem_top_track_8.DFF_0_.Q vss vss vdd vdd _074_ sky130_fd_sc_hd__inv_2
Xhold13 mem_right_track_8.DFF_0_.Q vss vss vdd vdd net88 sky130_fd_sc_hd__dlygate4sd3_1
Xhold24 mem_bottom_track_17.DFF_0_.Q vss vss vdd vdd net99 sky130_fd_sc_hd__dlygate4sd3_1
XFILLER_0_16_78 vss vss vdd vdd sky130_fd_sc_hd__fill_2
XFILLER_0_16_23 vss vss vdd vdd sky130_fd_sc_hd__decap_4
Xoutput47 net47 vss vss vdd vdd chany_bottom_out[3] sky130_fd_sc_hd__clkbuf_4
Xoutput36 net36 vss vss vdd vdd chanx_right_out[0] sky130_fd_sc_hd__clkbuf_4
Xoutput58 net58 vss vss vdd vdd chany_top_out[5] sky130_fd_sc_hd__clkbuf_4
XTAP_106 vss vdd sky130_fd_sc_hd__tapvpwrvgnd_1
XPHY_0 vss vss vdd vdd sky130_fd_sc_hd__decap_3
XFILLER_0_7_21 vss vss vdd vdd sky130_fd_sc_hd__fill_1
XFILLER_0_7_65 vss vss vdd vdd sky130_fd_sc_hd__fill_2
X_494__68 vss vss vdd vdd net68 _494__68/LO sky130_fd_sc_hd__conb_1
XFILLER_0_1_136 vss vss vdd vdd sky130_fd_sc_hd__fill_2
X_486_ mux_right_track_10.INVTX1_1_.out _104_ vss vss vdd vdd mux_top_track_16.mux_l1_in_1_.TGATE_0_.out
+ sky130_fd_sc_hd__ebufn_1
XFILLER_0_24_89 vss vss vdd vdd sky130_ef_sc_hd__decap_12
X_340_ net2 vss vss vdd vdd mux_bottom_track_1.INVTX1_5_.out sky130_fd_sc_hd__inv_2
X_538_ mux_right_track_14.INVTX1_1_.out _156_ vss vss vdd vdd mux_right_track_14.mux_l1_in_0_.TGATE_0_.out
+ sky130_fd_sc_hd__ebufn_1
X_271_ mem_bottom_track_9.DFF_0_.Q vss vss vdd vdd _098_ sky130_fd_sc_hd__inv_2
XFILLER_0_4_55 vss vss vdd vdd sky130_fd_sc_hd__fill_1
X_469_ mux_bottom_track_1.INVTX1_2_.out _087_ vss vss vdd vdd mux_bottom_track_1.mux_l1_in_1_.TGATE_0_.out
+ sky130_fd_sc_hd__ebufn_1
X_254_ _027_ vss vss vdd vdd _101_ sky130_fd_sc_hd__clkbuf_1
Xclkbuf_2_1__f_prog_clk clknet_0_prog_clk vss vss vdd vdd clknet_2_1__leaf_prog_clk
+ sky130_fd_sc_hd__clkbuf_16
X_323_ _050_ vss vss vdd vdd _054_ sky130_fd_sc_hd__clkbuf_1
X_185_ mem_right_track_12.DFF_0_.Q vss vss vdd vdd _004_ sky130_fd_sc_hd__clkbuf_1
XFILLER_0_19_12 vss vss vdd vdd sky130_ef_sc_hd__decap_12
XFILLER_0_24_123 vss vss vdd vdd sky130_ef_sc_hd__decap_12
XFILLER_0_24_101 vss vss vdd vdd sky130_fd_sc_hd__fill_2
XFILLER_0_21_57 vss vss vdd vdd sky130_ef_sc_hd__decap_12
X_306_ mem_top_track_8.DFF_1_.Q vss vss vdd vdd _072_ sky130_fd_sc_hd__inv_2
X_237_ _021_ vss vss vdd vdd _114_ sky130_fd_sc_hd__clkbuf_1
Xhold25 mem_right_track_4.DFF_0_.Q vss vss vdd vdd net100 sky130_fd_sc_hd__dlygate4sd3_1
XFILLER_0_15_167 vss vss vdd vdd sky130_fd_sc_hd__fill_1
XFILLER_0_1_34 vss vss vdd vdd sky130_ef_sc_hd__decap_12
XFILLER_0_1_12 vss vss vdd vdd sky130_fd_sc_hd__decap_6
Xhold14 mem_right_track_12.DFF_1_.Q vss vss vdd vdd net89 sky130_fd_sc_hd__dlygate4sd3_1
Xoutput37 net37 vss vss vdd vdd chanx_right_out[1] sky130_fd_sc_hd__clkbuf_4
Xoutput48 net48 vss vss vdd vdd chany_bottom_out[4] sky130_fd_sc_hd__clkbuf_4
Xoutput59 net59 vss vss vdd vdd chany_top_out[6] sky130_fd_sc_hd__clkbuf_4
XTAP_107 vss vdd sky130_fd_sc_hd__tapvpwrvgnd_1
XPHY_1 vss vss vdd vdd sky130_fd_sc_hd__decap_3
XFILLER_0_4_167 vss vss vdd vdd sky130_fd_sc_hd__fill_1
X_485_ mux_top_track_16.mux_l1_in_1_.TGATE_0_.out _103_ vss vss vdd vdd mux_top_track_16.mux_l2_in_0_.TGATE_0_.out
+ sky130_fd_sc_hd__ebufn_1
XFILLER_0_1_159 vss vss vdd vdd sky130_fd_sc_hd__fill_1
XFILLER_0_1_104 vss vss vdd vdd sky130_fd_sc_hd__fill_2
Xclkbuf_2_0__f_prog_clk clknet_0_prog_clk vss vss vdd vdd clknet_2_0__leaf_prog_clk
+ sky130_fd_sc_hd__clkbuf_16
X_270_ mem_bottom_track_9.DFF_1_.Q vss vss vdd vdd _096_ sky130_fd_sc_hd__inv_2
XFILLER_0_24_57 vss vss vdd vdd sky130_ef_sc_hd__decap_12
XFILLER_0_24_24 vss vss vdd vdd sky130_fd_sc_hd__decap_4
X_399_ clknet_2_3__leaf_prog_clk net84 vss vss vdd vdd mem_right_track_6.DFF_0_.Q
+ sky130_fd_sc_hd__dfxtp_1
X_537_ net75 _155_ vss vss vdd vdd mux_right_track_14.mux_l2_in_0_.TGATE_0_.out sky130_fd_sc_hd__ebufn_2
X_468_ mux_bottom_track_1.INVTX1_4_.out _086_ vss vss vdd vdd mux_bottom_track_1.mux_l1_in_2_.TGATE_0_.out
+ sky130_fd_sc_hd__ebufn_1
X_322_ mem_top_track_0.DFF_2_.Q vss vss vdd vdd _050_ sky130_fd_sc_hd__clkbuf_1
XFILLER_0_19_57 vss vss vdd vdd sky130_ef_sc_hd__decap_12
XFILLER_0_19_24 vss vss vdd vdd sky130_ef_sc_hd__decap_12
X_253_ mem_right_track_2.DFF_0_.D vss vss vdd vdd _027_ sky130_fd_sc_hd__clkbuf_1
X_184_ mem_right_track_12.DFF_0_.Q vss vss vdd vdd _150_ sky130_fd_sc_hd__inv_2
XFILLER_0_24_135 vss vss vdd vdd sky130_fd_sc_hd__fill_2
XFILLER_0_24_113 vss vss vdd vdd sky130_fd_sc_hd__decap_6
XFILLER_0_21_69 vss vss vdd vdd sky130_ef_sc_hd__decap_12
X_305_ _044_ vss vss vdd vdd _065_ sky130_fd_sc_hd__clkbuf_1
X_236_ mem_bottom_track_17.DFF_0_.Q vss vss vdd vdd _021_ sky130_fd_sc_hd__clkbuf_1
XFILLER_0_15_157 vss vss vdd vdd sky130_fd_sc_hd__fill_1
XFILLER_0_15_113 vss vss vdd vdd sky130_fd_sc_hd__decap_4
XFILLER_0_1_57 vss vss vdd vdd sky130_fd_sc_hd__decap_4
XFILLER_0_1_46 vss vss vdd vdd sky130_fd_sc_hd__decap_8
Xhold26 mem_bottom_track_9.DFF_0_.Q vss vss vdd vdd net101 sky130_fd_sc_hd__dlygate4sd3_1
Xhold15 mem_bottom_track_17.DFF_1_.Q vss vss vdd vdd net90 sky130_fd_sc_hd__dlygate4sd3_1
X_219_ mem_right_track_2.DFF_1_.Q vss vss vdd vdd _124_ sky130_fd_sc_hd__inv_2
XFILLER_0_12_149 vss vss vdd vdd sky130_fd_sc_hd__fill_1
Xoutput49 net49 vss vss vdd vdd chany_bottom_out[5] sky130_fd_sc_hd__clkbuf_4
Xoutput38 net38 vss vss vdd vdd chanx_right_out[2] sky130_fd_sc_hd__clkbuf_4
XFILLER_0_7_121 vss vss vdd vdd sky130_fd_sc_hd__fill_2
XFILLER_0_7_143 vss vss vdd vdd sky130_fd_sc_hd__fill_1
XTAP_108 vss vdd sky130_fd_sc_hd__tapvpwrvgnd_1
XPHY_2 vss vss vdd vdd sky130_fd_sc_hd__decap_3
X_484_ net67 _102_ vss vss vdd vdd mux_top_track_16.mux_l2_in_1_.TGATE_0_.out sky130_fd_sc_hd__ebufn_1
X_398_ clknet_2_3__leaf_prog_clk net96 vss vss vdd vdd mem_right_track_6.DFF_1_.Q
+ sky130_fd_sc_hd__dfxtp_1
X_536_ mux_bottom_track_1.INVTX1_1_.out _154_ vss vss vdd vdd mux_right_track_8.mux_l1_in_0_.TGATE_0_.out
+ sky130_fd_sc_hd__ebufn_1
X_467_ mux_bottom_track_1.mux_l1_in_0_.TGATE_0_.out _085_ vss vss vdd vdd mux_bottom_track_1.mux_l2_in_0_.TGATE_0_.out
+ sky130_fd_sc_hd__ebufn_1
XFILLER_0_19_69 vss vss vdd vdd sky130_ef_sc_hd__decap_12
XFILLER_0_19_36 vss vss vdd vdd sky130_fd_sc_hd__fill_1
X_321_ _049_ vss vss vdd vdd _055_ sky130_fd_sc_hd__clkbuf_1
X_183_ mem_right_track_12.DFF_1_.Q vss vss vdd vdd _148_ sky130_fd_sc_hd__inv_2
X_252_ _026_ vss vss vdd vdd _104_ sky130_fd_sc_hd__clkbuf_1
X_519_ mux_right_track_6.INVTX1_2_.out _137_ vss vss vdd vdd mux_right_track_6.mux_l1_in_1_.TGATE_0_.out
+ sky130_fd_sc_hd__ebufn_1
X_304_ mem_top_track_16.DFF_0_.D vss vss vdd vdd _044_ sky130_fd_sc_hd__clkbuf_1
X_235_ mem_bottom_track_17.DFF_0_.Q vss vss vdd vdd _119_ sky130_fd_sc_hd__inv_2
X_460__65 vss vss vdd vdd net65 _460__65/LO sky130_fd_sc_hd__conb_1
XFILLER_0_24_147 vss vss vdd vdd sky130_fd_sc_hd__fill_1
XFILLER_0_21_139 vss vss vdd vdd sky130_fd_sc_hd__fill_1
Xhold16 mem_top_track_16.DFF_0_.Q vss vss vdd vdd net91 sky130_fd_sc_hd__dlygate4sd3_1
Xhold27 mem_bottom_track_1.DFF_1_.Q vss vss vdd vdd net102 sky130_fd_sc_hd__dlygate4sd3_1
X_218_ _015_ vss vss vdd vdd _128_ sky130_fd_sc_hd__clkbuf_1
XFILLER_0_16_15 vss vss vdd vdd sky130_fd_sc_hd__decap_4
Xoutput39 net39 vss vss vdd vdd chanx_right_out[3] sky130_fd_sc_hd__clkbuf_4
XFILLER_0_7_111 vss vss vdd vdd sky130_fd_sc_hd__fill_1
XFILLER_0_7_166 vss vss vdd vdd sky130_fd_sc_hd__fill_2
XFILLER_0_9_9 vss vss vdd vdd sky130_fd_sc_hd__decap_8
XTAP_109 vss vdd sky130_fd_sc_hd__tapvpwrvgnd_1
XPHY_3 vss vss vdd vdd sky130_fd_sc_hd__decap_3
X_483_ mux_top_track_16.mux_l2_in_1_.TGATE_0_.out _101_ vss vss vdd vdd mux_top_track_16.mux_l3_in_0_.TGATE_0_.out
+ sky130_fd_sc_hd__ebufn_1
X_535_ mux_right_track_8.mux_l1_in_0_.TGATE_0_.out _153_ vss vss vdd vdd mux_right_track_8.mux_l2_in_0_.TGATE_0_.out
+ sky130_fd_sc_hd__ebufn_2
X_397_ clknet_2_3__leaf_prog_clk net76 vss vss vdd vdd mem_right_track_4.DFF_0_.Q
+ sky130_fd_sc_hd__dfxtp_1
XFILLER_0_5_3 vss vss vdd vdd sky130_ef_sc_hd__decap_12
X_466_ mux_bottom_track_1.mux_l1_in_2_.TGATE_0_.out _084_ vss vss vdd vdd mux_bottom_track_1.mux_l2_in_1_.TGATE_0_.out
+ sky130_fd_sc_hd__ebufn_1
XFILLER_0_19_48 vss vss vdd vdd sky130_fd_sc_hd__decap_8
X_182_ _003_ vss vss vdd vdd _151_ sky130_fd_sc_hd__clkbuf_1
X_320_ mem_top_track_0.DFF_0_.Q vss vss vdd vdd _049_ sky130_fd_sc_hd__clkbuf_1
X_251_ mem_top_track_16.DFF_0_.Q vss vss vdd vdd _026_ sky130_fd_sc_hd__clkbuf_1
X_518_ mux_right_track_6.mux_l1_in_0_.TGATE_0_.out _136_ vss vss vdd vdd mux_right_track_6.mux_l2_in_0_.TGATE_0_.out
+ sky130_fd_sc_hd__ebufn_1
X_449_ mux_top_track_8.mux_l1_in_1_.TGATE_0_.out _067_ vss vss vdd vdd mux_top_track_8.mux_l2_in_0_.TGATE_0_.out
+ sky130_fd_sc_hd__ebufn_1
XFILLER_0_18_112 vss vss vdd vdd sky130_fd_sc_hd__decap_4
X_303_ _043_ vss vss vdd vdd _069_ sky130_fd_sc_hd__clkbuf_1
X_234_ _020_ vss vss vdd vdd _113_ sky130_fd_sc_hd__clkbuf_1
Xhold28 mem_right_track_2.DFF_0_.Q vss vss vdd vdd net103 sky130_fd_sc_hd__dlygate4sd3_1
Xhold17 mem_top_track_8.DFF_1_.Q vss vss vdd vdd net92 sky130_fd_sc_hd__dlygate4sd3_1
X_217_ mem_right_track_4.DFF_0_.Q vss vss vdd vdd _015_ sky130_fd_sc_hd__clkbuf_1
XFILLER_0_16_27 vss vss vdd vdd sky130_fd_sc_hd__fill_1
XFILLER_0_22_92 vss vss vdd vdd sky130_fd_sc_hd__decap_8
XPHY_4 vss vss vdd vdd sky130_fd_sc_hd__decap_3
XFILLER_0_7_25 vss vss vdd vdd sky130_fd_sc_hd__decap_6
X_482_ mux_bottom_track_9.INVTX1_0_.out _100_ vss vss vdd vdd mux_bottom_track_9.mux_l1_in_0_.TGATE_0_.out
+ sky130_fd_sc_hd__ebufn_1
XFILLER_0_24_38 vss vss vdd vdd sky130_ef_sc_hd__decap_12
X_396_ clknet_2_3__leaf_prog_clk net100 vss vss vdd vdd mem_right_track_4.DFF_1_.Q
+ sky130_fd_sc_hd__dfxtp_1
X_534_ mux_right_track_8.INVTX1_1_.out _152_ vss vss vdd vdd mux_right_track_8.mux_l1_in_0_.TGATE_0_.out
+ sky130_fd_sc_hd__ebufn_1
X_465_ mux_bottom_track_1.mux_l2_in_0_.TGATE_0_.out _083_ vss vss vdd vdd mux_bottom_track_1.mux_l3_in_0_.TGATE_0_.out
+ sky130_fd_sc_hd__ebufn_2
X_181_ mem_right_track_10.DFF_0_.D vss vss vdd vdd _003_ sky130_fd_sc_hd__clkbuf_1
XFILLER_0_10_29 vss vss vdd vdd sky130_fd_sc_hd__fill_2
X_250_ mem_top_track_16.DFF_0_.Q vss vss vdd vdd _109_ sky130_fd_sc_hd__inv_2
X_517_ mux_right_track_6.INVTX1_1_.out _135_ vss vss vdd vdd mux_right_track_6.mux_l1_in_0_.TGATE_0_.out
+ sky130_fd_sc_hd__ebufn_1
X_448_ net64 _066_ vss vss vdd vdd mux_top_track_8.mux_l2_in_1_.TGATE_0_.out sky130_fd_sc_hd__ebufn_1
X_379_ clknet_2_0__leaf_prog_clk net92 vss vss vdd vdd mem_top_track_16.DFF_0_.D sky130_fd_sc_hd__dfxtp_1
X_302_ mem_top_track_8.DFF_0_.Q vss vss vdd vdd _043_ sky130_fd_sc_hd__clkbuf_1
X_233_ mem_bottom_track_17.DFF_1_.Q vss vss vdd vdd _020_ sky130_fd_sc_hd__clkbuf_1
Xhold18 mem_top_track_8.DFF_0_.Q vss vss vdd vdd net93 sky130_fd_sc_hd__dlygate4sd3_1
Xhold29 mem_top_track_0.DFF_0_.Q vss vss vdd vdd net104 sky130_fd_sc_hd__dlygate4sd3_1
XFILLER_0_20_141 vss vss vdd vdd sky130_fd_sc_hd__fill_1
X_216_ mem_right_track_4.DFF_0_.Q vss vss vdd vdd _131_ sky130_fd_sc_hd__inv_2
XPHY_5 vss vss vdd vdd sky130_fd_sc_hd__decap_3
X_481_ mux_bottom_track_9.INVTX1_2_.out _099_ vss vss vdd vdd mux_bottom_track_9.mux_l1_in_1_.TGATE_0_.out
+ sky130_fd_sc_hd__ebufn_1
XFILLER_0_0_141 vss vss vdd vdd sky130_fd_sc_hd__fill_1
XFILLER_0_24_17 vss vss vdd vdd sky130_fd_sc_hd__fill_1
X_533_ net74 _151_ vss vss vdd vdd mux_right_track_8.mux_l2_in_0_.TGATE_0_.out sky130_fd_sc_hd__ebufn_2
X_464_ mux_bottom_track_1.INVTX1_1_.out _082_ vss vss vdd vdd mux_bottom_track_1.mux_l1_in_0_.TGATE_0_.out
+ sky130_fd_sc_hd__ebufn_1
X_395_ clknet_2_3__leaf_prog_clk net77 vss vss vdd vdd mem_right_track_2.DFF_0_.Q
+ sky130_fd_sc_hd__dfxtp_1
XFILLER_0_4_27 vss vss vdd vdd sky130_fd_sc_hd__fill_1
X_180_ _002_ vss vss vdd vdd _152_ sky130_fd_sc_hd__clkbuf_1
X_516_ net71 _134_ vss vss vdd vdd mux_right_track_6.mux_l1_in_1_.TGATE_0_.out sky130_fd_sc_hd__ebufn_1
X_378_ clknet_2_2__leaf_prog_clk net3 vss vss vdd vdd mem_top_track_0.DFF_0_.Q sky130_fd_sc_hd__dfxtp_2
X_447_ mux_top_track_8.mux_l2_in_1_.TGATE_0_.out _065_ vss vss vdd vdd mux_top_track_8.mux_l3_in_0_.TGATE_0_.out
+ sky130_fd_sc_hd__ebufn_2
XFILLER_0_24_106 vss vss vdd vdd sky130_fd_sc_hd__decap_6
X_232_ _019_ vss vss vdd vdd _115_ sky130_fd_sc_hd__clkbuf_1
X_301_ mem_top_track_8.DFF_0_.Q vss vss vdd vdd _075_ sky130_fd_sc_hd__inv_2
XFILLER_0_23_161 vss vss vdd vdd sky130_fd_sc_hd__fill_1
XFILLER_0_15_117 vss vss vdd vdd sky130_fd_sc_hd__fill_1
Xhold19 mem_bottom_track_9.DFF_1_.Q vss vss vdd vdd net94 sky130_fd_sc_hd__dlygate4sd3_1
XFILLER_0_16_29 vss vss vdd vdd sky130_ef_sc_hd__decap_12
X_215_ _014_ vss vss vdd vdd _127_ sky130_fd_sc_hd__clkbuf_1
XFILLER_0_12_109 vss vss vdd vdd sky130_fd_sc_hd__decap_4
XFILLER_0_2_93 vss vss vdd vdd sky130_fd_sc_hd__decap_6
XPHY_6 vss vss vdd vdd sky130_fd_sc_hd__decap_3
XFILLER_0_17_83 vss vss vdd vdd sky130_fd_sc_hd__fill_1
XFILLER_0_7_9 vss vss vdd vdd sky130_ef_sc_hd__decap_12
X_480_ mux_bottom_track_9.INVTX1_4_.out _098_ vss vss vdd vdd mux_bottom_track_9.mux_l1_in_2_.TGATE_0_.out
+ sky130_fd_sc_hd__ebufn_1
XFILLER_0_14_3 vss vss vdd vdd sky130_ef_sc_hd__decap_12
XFILLER_0_24_29 vss vss vdd vdd sky130_fd_sc_hd__decap_6
X_394_ clknet_2_1__leaf_prog_clk net103 vss vss vdd vdd mem_right_track_2.DFF_1_.Q
+ sky130_fd_sc_hd__dfxtp_1
X_532_ mux_bottom_track_17.INVTX1_1_.out _150_ vss vss vdd vdd mux_right_track_12.mux_l1_in_0_.TGATE_0_.out
+ sky130_fd_sc_hd__ebufn_1
X_463_ mux_bottom_track_1.INVTX1_3_.out _081_ vss vss vdd vdd mux_bottom_track_1.mux_l1_in_1_.TGATE_0_.out
+ sky130_fd_sc_hd__ebufn_1
X_472__66 vss vss vdd vdd net66 _472__66/LO sky130_fd_sc_hd__conb_1
X_515_ mux_right_track_6.mux_l1_in_1_.TGATE_0_.out _133_ vss vss vdd vdd mux_right_track_6.mux_l2_in_0_.TGATE_0_.out
+ sky130_fd_sc_hd__ebufn_1
X_377_ clknet_2_2__leaf_prog_clk net104 vss vss vdd vdd mem_top_track_0.DFF_1_.Q sky130_fd_sc_hd__dfxtp_1
X_446_ mux_top_track_0.INVTX1_0_.out _064_ vss vss vdd vdd mux_top_track_0.mux_l1_in_0_.TGATE_0_.out
+ sky130_fd_sc_hd__ebufn_1
XFILLER_0_18_104 vss vss vdd vdd sky130_fd_sc_hd__decap_4
X_231_ mem_bottom_track_17.DFF_0_.Q vss vss vdd vdd _019_ sky130_fd_sc_hd__clkbuf_1
XFILLER_0_5_93 vss vss vdd vdd sky130_fd_sc_hd__fill_2
X_300_ _042_ vss vss vdd vdd _067_ sky130_fd_sc_hd__clkbuf_1
X_429_ net19 vss vss vdd vdd net60 sky130_fd_sc_hd__clkbuf_1
XFILLER_0_1_18 vss vss vdd vdd sky130_fd_sc_hd__fill_1
XTAP_90 vss vdd sky130_fd_sc_hd__tapvpwrvgnd_1
Xclkbuf_0_prog_clk prog_clk vss vss vdd vdd clknet_0_prog_clk sky130_fd_sc_hd__clkbuf_16
Xinput1 bottom_left_grid_right_width_0_height_0_subtile_0__pin_inpad_0_ vss vss vdd
+ vdd net1 sky130_fd_sc_hd__clkbuf_1
X_214_ mem_right_track_4.DFF_1_.Q vss vss vdd vdd _014_ sky130_fd_sc_hd__clkbuf_1
XFILLER_0_16_19 vss vss vdd vdd sky130_fd_sc_hd__fill_1
XPHY_7 vss vss vdd vdd sky130_fd_sc_hd__decap_3
XFILLER_0_17_51 vss vss vdd vdd sky130_fd_sc_hd__decap_4
XFILLER_0_0_132 vss vss vdd vdd sky130_fd_sc_hd__fill_2
XFILLER_0_8_93 vss vss vdd vdd sky130_fd_sc_hd__decap_6
X_393_ clknet_2_3__leaf_prog_clk net78 vss vss vdd vdd mem_bottom_track_17.DFF_0_.Q
+ sky130_fd_sc_hd__dfxtp_1
X_462_ mux_bottom_track_1.INVTX1_5_.out _080_ vss vss vdd vdd mux_bottom_track_1.mux_l1_in_2_.TGATE_0_.out
+ sky130_fd_sc_hd__ebufn_1
X_531_ mux_right_track_12.INVTX1_2_.out _149_ vss vss vdd vdd mux_right_track_12.mux_l1_in_1_.TGATE_0_.out
+ sky130_fd_sc_hd__ebufn_1
X_514_ mux_bottom_track_9.INVTX1_0_.out _132_ vss vss vdd vdd mux_right_track_4.mux_l1_in_0_.TGATE_0_.out
+ sky130_fd_sc_hd__ebufn_1
X_448__64 vss vss vdd vdd net64 _448__64/LO sky130_fd_sc_hd__conb_1
X_376_ clknet_2_2__leaf_prog_clk net98 vss vss vdd vdd mem_top_track_0.DFF_2_.Q sky130_fd_sc_hd__dfxtp_1
X_445_ mux_bottom_track_1.INVTX1_3_.out _063_ vss vss vdd vdd mux_top_track_0.mux_l1_in_1_.TGATE_0_.out
+ sky130_fd_sc_hd__ebufn_1
XFILLER_0_24_119 vss vss vdd vdd sky130_fd_sc_hd__fill_1
X_230_ mem_bottom_track_17.DFF_0_.Q vss vss vdd vdd _120_ sky130_fd_sc_hd__inv_2
XFILLER_0_23_141 vss vss vdd vdd sky130_fd_sc_hd__decap_3
X_359_ net29 vss vss vdd vdd mux_right_track_4.INVTX1_1_.out sky130_fd_sc_hd__inv_2
X_428_ net22 vss vss vdd vdd net45 sky130_fd_sc_hd__clkbuf_1
XFILLER_0_15_108 vss vss vdd vdd sky130_fd_sc_hd__decap_4
XTAP_91 vss vdd sky130_fd_sc_hd__tapvpwrvgnd_1
XTAP_80 vss vdd sky130_fd_sc_hd__tapvpwrvgnd_1
Xinput2 bottom_right_grid_left_width_0_height_0_subtile_0__pin_O_1_ vss vss vdd vdd
+ net2 sky130_fd_sc_hd__clkbuf_1
X_213_ _013_ vss vss vdd vdd _129_ sky130_fd_sc_hd__clkbuf_1
XFILLER_0_22_85 vss vss vdd vdd sky130_fd_sc_hd__decap_4
XFILLER_0_22_41 vss vss vdd vdd sky130_ef_sc_hd__decap_12
XFILLER_0_11_111 vss vss vdd vdd sky130_fd_sc_hd__fill_1
XFILLER_0_23_9 vss vss vdd vdd sky130_fd_sc_hd__fill_2
XPHY_8 vss vss vdd vdd sky130_fd_sc_hd__decap_3
XFILLER_0_0_155 vss vss vdd vdd sky130_fd_sc_hd__fill_1
XFILLER_0_0_166 vss vss vdd vdd sky130_fd_sc_hd__fill_2
XFILLER_0_8_83 vss vss vdd vdd sky130_fd_sc_hd__fill_1
X_392_ clknet_2_2__leaf_prog_clk net99 vss vss vdd vdd mem_bottom_track_17.DFF_1_.Q
+ sky130_fd_sc_hd__dfxtp_1