* NGSPICE file created from sb_1__0_.ext - technology: sky130A

* Black-box entry subcircuit for sky130_fd_sc_hd__fill_2 abstract view
.subckt sky130_fd_sc_hd__fill_2 VGND VNB VPB VPWR
.ends

* Black-box entry subcircuit for sky130_fd_sc_hd__clkbuf_1 abstract view
.subckt sky130_fd_sc_hd__clkbuf_1 A VGND VNB VPB VPWR X
.ends

* Black-box entry subcircuit for sky130_fd_sc_hd__dfxtp_1 abstract view
.subckt sky130_fd_sc_hd__dfxtp_1 CLK D VGND VNB VPB VPWR Q
.ends

* Black-box entry subcircuit for sky130_fd_sc_hd__ebufn_1 abstract view
.subckt sky130_fd_sc_hd__ebufn_1 A TE_B VGND VNB VPB VPWR Z
.ends

* Black-box entry subcircuit for sky130_ef_sc_hd__decap_12 abstract view
.subckt sky130_ef_sc_hd__decap_12 VGND VNB VPB VPWR
.ends

* Black-box entry subcircuit for sky130_fd_sc_hd__ebufn_2 abstract view
.subckt sky130_fd_sc_hd__ebufn_2 A TE_B VGND VNB VPB VPWR Z
.ends

* Black-box entry subcircuit for sky130_fd_sc_hd__inv_2 abstract view
.subckt sky130_fd_sc_hd__inv_2 A VGND VNB VPB VPWR Y
.ends

* Black-box entry subcircuit for sky130_fd_sc_hd__fill_1 abstract view
.subckt sky130_fd_sc_hd__fill_1 VGND VNB VPB VPWR
.ends

* Black-box entry subcircuit for sky130_fd_sc_hd__decap_3 abstract view
.subckt sky130_fd_sc_hd__decap_3 VGND VNB VPB VPWR
.ends

* Black-box entry subcircuit for sky130_fd_sc_hd__conb_1 abstract view
.subckt sky130_fd_sc_hd__conb_1 VGND VNB VPB VPWR HI LO
.ends

* Black-box entry subcircuit for sky130_fd_sc_hd__decap_8 abstract view
.subckt sky130_fd_sc_hd__decap_8 VGND VNB VPB VPWR
.ends

* Black-box entry subcircuit for sky130_fd_sc_hd__clkbuf_4 abstract view
.subckt sky130_fd_sc_hd__clkbuf_4 A VGND VNB VPB VPWR X
.ends

* Black-box entry subcircuit for sky130_fd_sc_hd__tapvpwrvgnd_1 abstract view
.subckt sky130_fd_sc_hd__tapvpwrvgnd_1 VGND VPWR
.ends

* Black-box entry subcircuit for sky130_fd_sc_hd__dlygate4sd3_1 abstract view
.subckt sky130_fd_sc_hd__dlygate4sd3_1 A VGND VNB VPB VPWR X
.ends

* Black-box entry subcircuit for sky130_fd_sc_hd__decap_4 abstract view
.subckt sky130_fd_sc_hd__decap_4 VGND VNB VPB VPWR
.ends

* Black-box entry subcircuit for sky130_fd_sc_hd__clkbuf_16 abstract view
.subckt sky130_fd_sc_hd__clkbuf_16 A VGND VNB VPB VPWR X
.ends

* Black-box entry subcircuit for sky130_fd_sc_hd__buf_2 abstract view
.subckt sky130_fd_sc_hd__buf_2 A VGND VNB VPB VPWR X
.ends

* Black-box entry subcircuit for sky130_fd_sc_hd__decap_6 abstract view
.subckt sky130_fd_sc_hd__decap_6 VGND VNB VPB VPWR
.ends

* Black-box entry subcircuit for sky130_fd_sc_hd__buf_1 abstract view
.subckt sky130_fd_sc_hd__buf_1 A VGND VNB VPB VPWR X
.ends

* Black-box entry subcircuit for sky130_fd_sc_hd__dfxtp_2 abstract view
.subckt sky130_fd_sc_hd__dfxtp_2 CLK D VGND VNB VPB VPWR Q
.ends

* Black-box entry subcircuit for sky130_fd_sc_hd__clkbuf_2 abstract view
.subckt sky130_fd_sc_hd__clkbuf_2 A VGND VNB VPB VPWR X
.ends

* Black-box entry subcircuit for sky130_fd_sc_hd__dlymetal6s2s_1 abstract view
.subckt sky130_fd_sc_hd__dlymetal6s2s_1 A VGND VNB VPB VPWR X
.ends

.subckt sb_1__0_ ccff_head ccff_tail chanx_left_in[0] chanx_left_in[1] chanx_left_in[2]
+ chanx_left_in[3] chanx_left_in[4] chanx_left_in[5] chanx_left_in[6] chanx_left_in[7]
+ chanx_left_in[8] chanx_left_out[0] chanx_left_out[1] chanx_left_out[2] chanx_left_out[3]
+ chanx_left_out[4] chanx_left_out[5] chanx_left_out[6] chanx_left_out[7] chanx_left_out[8]
+ chanx_right_in[0] chanx_right_in[1] chanx_right_in[2] chanx_right_in[3] chanx_right_in[4]
+ chanx_right_in[5] chanx_right_in[6] chanx_right_in[7] chanx_right_in[8] chanx_right_out[0]
+ chanx_right_out[1] chanx_right_out[2] chanx_right_out[3] chanx_right_out[4] chanx_right_out[5]
+ chanx_right_out[6] chanx_right_out[7] chanx_right_out[8] chany_top_in[0] chany_top_in[1]
+ chany_top_in[2] chany_top_in[3] chany_top_in[4] chany_top_in[5] chany_top_in[6]
+ chany_top_in[7] chany_top_in[8] chany_top_out[0] chany_top_out[1] chany_top_out[2]
+ chany_top_out[3] chany_top_out[4] chany_top_out[5] chany_top_out[6] chany_top_out[7]
+ chany_top_out[8] left_bottom_grid_top_width_0_height_0_subtile_0__pin_inpad_0_ left_top_grid_bottom_width_0_height_0_subtile_0__pin_O_0_
+ prog_clk right_bottom_grid_top_width_0_height_0_subtile_0__pin_inpad_0_ right_top_grid_bottom_width_0_height_0_subtile_0__pin_O_0_
+ top_left_grid_right_width_0_height_0_subtile_0__pin_O_3_ top_right_grid_left_width_0_height_0_subtile_0__pin_O_1_
+ vdd vss
XFILLER_0_27_93 vss vss vdd vdd sky130_fd_sc_hd__fill_2
X_294_ _044_ vss vss vdd vdd _061_ sky130_fd_sc_hd__clkbuf_1
X_363_ clknet_2_0__leaf_prog_clk net75 vss vss vdd vdd mem_left_track_17.DFF_0_.Q
+ sky130_fd_sc_hd__dfxtp_1
X_501_ net73 _139_ vss vss vdd vdd mux_left_track_9.mux_l2_in_1_.TGATE_0_.out sky130_fd_sc_hd__ebufn_1
XFILLER_0_3_39 vss vss vdd vdd sky130_ef_sc_hd__decap_12
X_432_ mux_left_track_17.mux_l2_in_1_.TGATE_0_.out _070_ vss vss vdd vdd mux_left_track_17.mux_l3_in_0_.TGATE_0_.out
+ sky130_fd_sc_hd__ebufn_2
X_346_ net30 vss vss vdd vdd mux_left_track_1.INVTX1_5_.out sky130_fd_sc_hd__inv_2
X_415_ mux_left_track_9.INVTX1_3_.out _053_ vss vss vdd vdd mux_top_track_0.mux_l1_in_0_.TGATE_0_.out
+ sky130_fd_sc_hd__ebufn_1
XFILLER_0_24_72 vss vss vdd vdd sky130_fd_sc_hd__fill_1
X_277_ mem_left_track_17.DFF_1_.Q vss vss vdd vdd _076_ sky130_fd_sc_hd__inv_2
X_200_ _012_ vss vss vdd vdd _119_ sky130_fd_sc_hd__clkbuf_1
X_329_ mux_top_track_16.mux_l3_in_0_.TGATE_0_.out vss vss vdd vdd net62 sky130_fd_sc_hd__inv_2
XFILLER_0_0_29 vss vss vdd vdd sky130_fd_sc_hd__fill_1
XFILLER_0_0_18 vss vss vdd vdd sky130_fd_sc_hd__decap_3
XFILLER_0_10_85 vss vss vdd vdd sky130_fd_sc_hd__fill_1
X_452__68 vss vss vdd vdd net68 _452__68/LO sky130_fd_sc_hd__conb_1
XFILLER_0_25_117 vss vss vdd vdd sky130_fd_sc_hd__decap_8
XFILLER_0_16_139 vss vss vdd vdd sky130_fd_sc_hd__fill_1
XFILLER_0_26_29 vss vss vdd vdd sky130_fd_sc_hd__fill_1
XFILLER_0_20_9 vss vss vdd vdd sky130_fd_sc_hd__fill_2
Xoutput53 net53 vss vss vdd vdd chanx_right_out[8] sky130_fd_sc_hd__clkbuf_4
Xoutput42 net42 vss vss vdd vdd chanx_left_out[6] sky130_fd_sc_hd__clkbuf_4
XFILLER_0_27_83 vss vss vdd vdd sky130_fd_sc_hd__fill_1
XTAP_123 vss vdd sky130_fd_sc_hd__tapvpwrvgnd_1
XTAP_112 vss vdd sky130_fd_sc_hd__tapvpwrvgnd_1
XTAP_101 vss vdd sky130_fd_sc_hd__tapvpwrvgnd_1
X_293_ mem_right_track_16.DFF_1_.Q vss vss vdd vdd _044_ sky130_fd_sc_hd__clkbuf_1
X_500_ mux_left_track_9.mux_l2_in_1_.TGATE_0_.out _138_ vss vss vdd vdd mux_left_track_9.mux_l3_in_0_.TGATE_0_.out
+ sky130_fd_sc_hd__ebufn_2
X_431_ mux_left_track_17.INVTX1_0_.out _069_ vss vss vdd vdd mux_right_track_16.mux_l1_in_0_.TGATE_0_.out
+ sky130_fd_sc_hd__ebufn_1
X_362_ clknet_2_2__leaf_prog_clk net89 vss vss vdd vdd mem_left_track_17.DFF_1_.Q
+ sky130_fd_sc_hd__dfxtp_1
XFILLER_0_2_109 vss vss vdd vdd sky130_ef_sc_hd__decap_12
XFILLER_0_1_120 vss vss vdd vdd sky130_fd_sc_hd__decap_3
X_414_ mux_top_track_0.mux_l1_in_1_.TGATE_0_.out _052_ vss vss vdd vdd mux_top_track_0.mux_l2_in_0_.TGATE_0_.out
+ sky130_fd_sc_hd__ebufn_1
X_345_ net20 vss vss vdd vdd mux_left_track_1.INVTX1_0_.out sky130_fd_sc_hd__inv_2
X_276_ _038_ vss vss vdd vdd _070_ sky130_fd_sc_hd__clkbuf_1
XFILLER_0_4_61 vss vss vdd vdd sky130_fd_sc_hd__fill_2
X_259_ _032_ vss vss vdd vdd _082_ sky130_fd_sc_hd__clkbuf_1
X_328_ net10 vss vss vdd vdd mux_top_track_14.INVTX1_1_.out sky130_fd_sc_hd__inv_2
XFILLER_0_21_52 vss vss vdd vdd sky130_fd_sc_hd__fill_1
XFILLER_0_27_3 vss vss vdd vdd sky130_fd_sc_hd__fill_1
Xhold20 mem_right_track_16.DFF_0_.Q vss vss vdd vdd net93 sky130_fd_sc_hd__dlygate4sd3_1
XFILLER_0_1_62 vss vss vdd vdd sky130_ef_sc_hd__decap_12
XFILLER_0_21_132 vss vss vdd vdd sky130_fd_sc_hd__decap_4
XFILLER_0_6_18 vss vss vdd vdd sky130_fd_sc_hd__decap_8
XFILLER_0_6_29 vss vss vdd vdd sky130_ef_sc_hd__decap_12
Xoutput54 net54 vss vss vdd vdd chany_top_out[0] sky130_fd_sc_hd__clkbuf_4
Xoutput43 net43 vss vss vdd vdd chanx_left_out[7] sky130_fd_sc_hd__clkbuf_4
XTAP_124 vss vdd sky130_fd_sc_hd__tapvpwrvgnd_1
XTAP_113 vss vdd sky130_fd_sc_hd__tapvpwrvgnd_1
XTAP_102 vss vdd sky130_fd_sc_hd__tapvpwrvgnd_1
X_292_ mem_right_track_16.DFF_1_.Q vss vss vdd vdd _066_ sky130_fd_sc_hd__inv_2
X_430_ mux_left_track_17.INVTX1_2_.out _068_ vss vss vdd vdd mux_right_track_16.mux_l1_in_1_.TGATE_0_.out
+ sky130_fd_sc_hd__ebufn_1
X_361_ clknet_2_2__leaf_prog_clk net99 vss vss vdd vdd net35 sky130_fd_sc_hd__dfxtp_1
XFILLER_0_13_53 vss vss vdd vdd sky130_fd_sc_hd__decap_3
X_413_ mux_top_track_0.mux_l2_in_1_.TGATE_0_.out _051_ vss vss vdd vdd mux_top_track_0.mux_l3_in_0_.TGATE_0_.out
+ sky130_fd_sc_hd__ebufn_2
X_344_ net23 vss vss vdd vdd mux_left_track_1.INVTX1_1_.out sky130_fd_sc_hd__inv_2
X_275_ net35 vss vss vdd vdd _038_ sky130_fd_sc_hd__clkbuf_1
X_258_ mem_top_track_2.DFF_0_.Q vss vss vdd vdd _032_ sky130_fd_sc_hd__clkbuf_1
X_327_ mux_top_track_14.mux_l2_in_0_.TGATE_0_.out vss vss vdd vdd net61 sky130_fd_sc_hd__inv_2
XFILLER_0_19_116 vss vss vdd vdd sky130_fd_sc_hd__fill_1
X_189_ _009_ vss vss vdd vdd _126_ sky130_fd_sc_hd__clkbuf_1
XFILLER_0_21_97 vss vss vdd vdd sky130_fd_sc_hd__fill_1
XFILLER_0_21_42 vss vss vdd vdd sky130_fd_sc_hd__fill_2
XFILLER_0_1_74 vss vss vdd vdd sky130_fd_sc_hd__fill_2
Xhold21 mem_top_track_0.DFF_1_.Q vss vss vdd vdd net94 sky130_fd_sc_hd__dlygate4sd3_1
Xhold10 mem_top_track_2.DFF_1_.Q vss vss vdd vdd net83 sky130_fd_sc_hd__dlygate4sd3_1
XFILLER_0_12_144 vss vss vdd vdd sky130_fd_sc_hd__fill_2
Xoutput55 net55 vss vss vdd vdd chany_top_out[1] sky130_fd_sc_hd__clkbuf_4
Xoutput44 net44 vss vss vdd vdd chanx_left_out[8] sky130_fd_sc_hd__clkbuf_4
XFILLER_0_9_3 vss vss vdd vdd sky130_fd_sc_hd__fill_2
XTAP_125 vss vdd sky130_fd_sc_hd__tapvpwrvgnd_1
XFILLER_0_27_85 vss vss vdd vdd sky130_fd_sc_hd__fill_2
XTAP_114 vss vdd sky130_fd_sc_hd__tapvpwrvgnd_1
XTAP_103 vss vdd sky130_fd_sc_hd__tapvpwrvgnd_1
X_291_ _043_ vss vss vdd vdd _060_ sky130_fd_sc_hd__clkbuf_1
XFILLER_0_4_141 vss vss vdd vdd sky130_fd_sc_hd__fill_1
X_360_ clknet_2_2__leaf_prog_clk net78 vss vss vdd vdd mem_right_track_16.DFF_0_.Q
+ sky130_fd_sc_hd__dfxtp_1
X_489_ net72 _127_ vss vss vdd vdd mux_left_track_1.mux_l2_in_1_.TGATE_0_.out sky130_fd_sc_hd__ebufn_1
XFILLER_0_1_144 vss vss vdd vdd sky130_fd_sc_hd__fill_2
XFILLER_0_1_111 vss vss vdd vdd sky130_fd_sc_hd__fill_1
X_412_ net63 _050_ vss vss vdd vdd mux_top_track_0.mux_l2_in_1_.TGATE_0_.out sky130_fd_sc_hd__ebufn_1
X_343_ net26 vss vss vdd vdd mux_left_track_1.INVTX1_2_.out sky130_fd_sc_hd__inv_2
X_274_ _037_ vss vss vdd vdd _073_ sky130_fd_sc_hd__clkbuf_1
XFILLER_0_4_41 vss vss vdd vdd sky130_ef_sc_hd__decap_12
XFILLER_0_4_85 vss vss vdd vdd sky130_ef_sc_hd__decap_12
X_257_ mem_top_track_2.DFF_0_.Q vss vss vdd vdd _085_ sky130_fd_sc_hd__inv_2
X_326_ mux_top_track_8.mux_l2_in_0_.TGATE_0_.out vss vss vdd vdd net58 sky130_fd_sc_hd__inv_2
X_188_ mem_left_track_1.DFF_2_.Q vss vss vdd vdd _009_ sky130_fd_sc_hd__clkbuf_1
X_309_ mem_top_track_0.DFF_1_.Q vss vss vdd vdd _055_ sky130_fd_sc_hd__inv_2
XFILLER_0_16_109 vss vss vdd vdd sky130_fd_sc_hd__fill_1
XFILLER_0_21_76 vss vss vdd vdd sky130_fd_sc_hd__fill_1
Xhold11 mem_top_track_8.DFF_0_.Q vss vss vdd vdd net84 sky130_fd_sc_hd__dlygate4sd3_1
Xhold22 mem_left_track_1.DFF_0_.Q vss vss vdd vdd net95 sky130_fd_sc_hd__dlygate4sd3_1
XFILLER_0_8_139 vss vss vdd vdd sky130_fd_sc_hd__fill_1
Xoutput56 net56 vss vss vdd vdd chany_top_out[2] sky130_fd_sc_hd__clkbuf_4
Xoutput45 net45 vss vss vdd vdd chanx_right_out[0] sky130_fd_sc_hd__clkbuf_4
XTAP_126 vss vdd sky130_fd_sc_hd__tapvpwrvgnd_1
XTAP_115 vss vdd sky130_fd_sc_hd__tapvpwrvgnd_1
XTAP_104 vss vdd sky130_fd_sc_hd__tapvpwrvgnd_1
X_412__63 vss vss vdd vdd net63 _412__63/LO sky130_fd_sc_hd__conb_1
X_290_ mem_left_track_1.DFF_0_.D vss vss vdd vdd _043_ sky130_fd_sc_hd__clkbuf_1
X_488_ mux_left_track_1.mux_l2_in_1_.TGATE_0_.out _126_ vss vss vdd vdd mux_left_track_1.mux_l3_in_0_.TGATE_0_.out
+ sky130_fd_sc_hd__ebufn_2
XFILLER_0_1_101 vss vss vdd vdd sky130_fd_sc_hd__fill_1
X_411_ net15 vss vss vdd vdd net56 sky130_fd_sc_hd__clkbuf_1
X_273_ mem_left_track_17.DFF_0_.Q vss vss vdd vdd _037_ sky130_fd_sc_hd__clkbuf_1
X_342_ net11 vss vss vdd vdd mux_left_track_1.INVTX1_3_.out sky130_fd_sc_hd__inv_2
XFILLER_0_4_53 vss vss vdd vdd sky130_fd_sc_hd__decap_8
XFILLER_0_4_97 vss vss vdd vdd sky130_ef_sc_hd__decap_12
X_325_ net19 vss vss vdd vdd mux_top_track_2.INVTX1_2_.out sky130_fd_sc_hd__inv_2
X_256_ mem_top_track_2.DFF_1_.Q vss vss vdd vdd _083_ sky130_fd_sc_hd__inv_2
X_187_ _008_ vss vss vdd vdd _130_ sky130_fd_sc_hd__clkbuf_1
X_308_ _049_ vss vss vdd vdd _050_ sky130_fd_sc_hd__clkbuf_1
X_239_ mem_right_track_0.DFF_0_.D vss vss vdd vdd _026_ sky130_fd_sc_hd__clkbuf_1
XFILLER_0_1_87 vss vss vdd vdd sky130_fd_sc_hd__decap_3
XFILLER_0_1_43 vss vss vdd vdd sky130_fd_sc_hd__fill_2
Xhold12 mem_top_track_16.DFF_0_.Q vss vss vdd vdd net85 sky130_fd_sc_hd__dlygate4sd3_1
Xhold23 mem_left_track_9.DFF_0_.Q vss vss vdd vdd net96 sky130_fd_sc_hd__dlygate4sd3_1
Xclkbuf_2_3__f_prog_clk clknet_0_prog_clk vss vss vdd vdd clknet_2_3__leaf_prog_clk
+ sky130_fd_sc_hd__clkbuf_16
XFILLER_0_16_44 vss vss vdd vdd sky130_fd_sc_hd__fill_1
Xoutput57 net57 vss vss vdd vdd chany_top_out[3] sky130_fd_sc_hd__clkbuf_4
XFILLER_0_25_3 vss vss vdd vdd sky130_fd_sc_hd__fill_2
Xoutput46 net46 vss vss vdd vdd chanx_right_out[1] sky130_fd_sc_hd__clkbuf_4
Xoutput35 net35 vss vss vdd vdd ccff_tail sky130_fd_sc_hd__buf_2
XFILLER_0_7_140 vss vss vdd vdd sky130_fd_sc_hd__decap_3
XTAP_127 vss vdd sky130_fd_sc_hd__tapvpwrvgnd_1
XTAP_116 vss vdd sky130_fd_sc_hd__tapvpwrvgnd_1
XTAP_105 vss vdd sky130_fd_sc_hd__tapvpwrvgnd_1
XFILLER_0_4_121 vss vss vdd vdd sky130_ef_sc_hd__decap_12
XFILLER_0_13_34 vss vss vdd vdd sky130_fd_sc_hd__fill_2
XFILLER_0_1_113 vss vss vdd vdd sky130_fd_sc_hd__decap_4
X_487_ mux_left_track_1.INVTX1_0_.out _125_ vss vss vdd vdd mux_right_track_8.mux_l1_in_0_.TGATE_0_.out
+ sky130_fd_sc_hd__ebufn_1
X_410_ net16 vss vss vdd vdd net57 sky130_fd_sc_hd__clkbuf_1
X_272_ mem_left_track_17.DFF_0_.Q vss vss vdd vdd _078_ sky130_fd_sc_hd__inv_2
XFILLER_0_0_9 vss vss vdd vdd sky130_fd_sc_hd__decap_3
X_341_ net15 vss vss vdd vdd mux_left_track_1.INVTX1_4_.out sky130_fd_sc_hd__inv_2
XFILLER_0_24_44 vss vss vdd vdd sky130_fd_sc_hd__fill_1
X_324_ net34 vss vss vdd vdd mux_top_track_2.INVTX1_0_.out sky130_fd_sc_hd__inv_2
X_255_ _031_ vss vss vdd vdd _086_ sky130_fd_sc_hd__clkbuf_1
X_186_ mem_left_track_1.DFF_0_.Q vss vss vdd vdd _008_ sky130_fd_sc_hd__clkbuf_1
XFILLER_0_18_130 vss vss vdd vdd sky130_fd_sc_hd__fill_1
Xclkbuf_2_2__f_prog_clk clknet_0_prog_clk vss vss vdd vdd clknet_2_2__leaf_prog_clk
+ sky130_fd_sc_hd__clkbuf_16
XFILLER_0_24_144 vss vss vdd vdd sky130_fd_sc_hd__fill_2
X_307_ mem_top_track_0.DFF_1_.Q vss vss vdd vdd _049_ sky130_fd_sc_hd__clkbuf_1
X_169_ _002_ vss vss vdd vdd _142_ sky130_fd_sc_hd__clkbuf_1
X_238_ _025_ vss vss vdd vdd _096_ sky130_fd_sc_hd__clkbuf_1
Xhold24 mem_right_track_0.DFF_1_.Q vss vss vdd vdd net97 sky130_fd_sc_hd__dlygate4sd3_1
XFILLER_0_15_111 vss vss vdd vdd sky130_fd_sc_hd__fill_1
Xhold13 mem_left_track_1.DFF_2_.Q vss vss vdd vdd net86 sky130_fd_sc_hd__dlygate4sd3_1
XFILLER_0_18_3 vss vss vdd vdd sky130_fd_sc_hd__fill_2
Xoutput58 net58 vss vss vdd vdd chany_top_out[4] sky130_fd_sc_hd__clkbuf_4
Xoutput47 net47 vss vss vdd vdd chanx_right_out[2] sky130_fd_sc_hd__clkbuf_4
Xoutput36 net36 vss vss vdd vdd chanx_left_out[0] sky130_fd_sc_hd__clkbuf_4
XTAP_128 vss vdd sky130_fd_sc_hd__tapvpwrvgnd_1
XTAP_117 vss vdd sky130_fd_sc_hd__tapvpwrvgnd_1
XTAP_106 vss vdd sky130_fd_sc_hd__tapvpwrvgnd_1
XPHY_0 vss vss vdd vdd sky130_fd_sc_hd__decap_3
XFILLER_0_4_133 vss vss vdd vdd sky130_fd_sc_hd__decap_6
XFILLER_0_7_54 vss vss vdd vdd sky130_fd_sc_hd__fill_2
XFILLER_0_7_3 vss vss vdd vdd sky130_fd_sc_hd__fill_2
XFILLER_0_13_68 vss vss vdd vdd sky130_fd_sc_hd__fill_2
X_486_ mux_left_track_1.INVTX1_2_.out _124_ vss vss vdd vdd mux_right_track_8.mux_l1_in_1_.TGATE_0_.out
+ sky130_fd_sc_hd__ebufn_1
X_271_ _036_ vss vss vdd vdd _072_ sky130_fd_sc_hd__clkbuf_1
X_340_ mux_left_track_1.mux_l3_in_0_.TGATE_0_.out vss vss vdd vdd net36 sky130_fd_sc_hd__inv_2
X_469_ mux_left_track_9.INVTX1_1_.out _107_ vss vss vdd vdd mux_right_track_0.mux_l1_in_0_.TGATE_0_.out
+ sky130_fd_sc_hd__ebufn_1
X_323_ mux_top_track_2.mux_l2_in_0_.TGATE_0_.out vss vss vdd vdd net55 sky130_fd_sc_hd__inv_2
X_254_ mem_top_track_14.DFF_0_.D vss vss vdd vdd _031_ sky130_fd_sc_hd__clkbuf_1
Xclkbuf_2_1__f_prog_clk clknet_0_prog_clk vss vss vdd vdd clknet_2_1__leaf_prog_clk
+ sky130_fd_sc_hd__clkbuf_16
X_185_ mem_left_track_1.DFF_0_.Q vss vss vdd vdd _136_ sky130_fd_sc_hd__inv_2
X_306_ _048_ vss vss vdd vdd _051_ sky130_fd_sc_hd__clkbuf_1
X_168_ mem_left_track_9.DFF_0_.Q vss vss vdd vdd _002_ sky130_fd_sc_hd__clkbuf_1
X_237_ mem_top_track_16.DFF_1_.Q vss vss vdd vdd _025_ sky130_fd_sc_hd__clkbuf_1
Xhold14 mem_top_track_2.DFF_0_.Q vss vss vdd vdd net87 sky130_fd_sc_hd__dlygate4sd3_1
Xhold25 mem_left_track_9.DFF_1_.Q vss vss vdd vdd net98 sky130_fd_sc_hd__dlygate4sd3_1
XFILLER_0_1_12 vss vss vdd vdd sky130_ef_sc_hd__decap_12
XFILLER_0_8_109 vss vss vdd vdd sky130_ef_sc_hd__decap_12
Xoutput59 net59 vss vss vdd vdd chany_top_out[5] sky130_fd_sc_hd__clkbuf_4
Xoutput48 net48 vss vss vdd vdd chanx_right_out[3] sky130_fd_sc_hd__clkbuf_4
Xoutput37 net37 vss vss vdd vdd chanx_left_out[1] sky130_fd_sc_hd__clkbuf_4
XFILLER_0_7_120 vss vss vdd vdd sky130_ef_sc_hd__decap_12
XTAP_129 vss vdd sky130_fd_sc_hd__tapvpwrvgnd_1
XTAP_118 vss vdd sky130_fd_sc_hd__tapvpwrvgnd_1
XTAP_107 vss vdd sky130_fd_sc_hd__tapvpwrvgnd_1
XPHY_1 vss vss vdd vdd sky130_fd_sc_hd__decap_3
XFILLER_0_7_22 vss vss vdd vdd sky130_ef_sc_hd__decap_12
XFILLER_0_13_47 vss vss vdd vdd sky130_fd_sc_hd__decap_3
XFILLER_0_1_126 vss vss vdd vdd sky130_fd_sc_hd__decap_6
X_485_ mux_right_track_8.INVTX1_4_.out _123_ vss vss vdd vdd mux_right_track_8.mux_l1_in_2_.TGATE_0_.out
+ sky130_fd_sc_hd__ebufn_1
Xclkbuf_2_0__f_prog_clk clknet_0_prog_clk vss vss vdd vdd clknet_2_0__leaf_prog_clk
+ sky130_fd_sc_hd__clkbuf_16
X_270_ mem_left_track_17.DFF_1_.Q vss vss vdd vdd _036_ sky130_fd_sc_hd__clkbuf_1
XFILLER_0_24_35 vss vss vdd vdd sky130_fd_sc_hd__decap_3
X_468_ mux_right_track_0.INVTX1_3_.out _106_ vss vss vdd vdd mux_right_track_0.mux_l1_in_1_.TGATE_0_.out
+ sky130_fd_sc_hd__ebufn_1
X_399_ net13 vss vss vdd vdd net39 sky130_fd_sc_hd__clkbuf_1
X_322_ net17 vss vss vdd vdd mux_left_track_17.INVTX1_4_.out sky130_fd_sc_hd__inv_2
X_253_ _030_ vss vss vdd vdd _087_ sky130_fd_sc_hd__clkbuf_1
X_184_ _007_ vss vss vdd vdd _128_ sky130_fd_sc_hd__clkbuf_1
X_305_ mem_top_track_0.DFF_2_.Q vss vss vdd vdd _048_ sky130_fd_sc_hd__clkbuf_1
X_167_ mem_left_track_9.DFF_0_.Q vss vss vdd vdd _148_ sky130_fd_sc_hd__inv_2
X_236_ _024_ vss vss vdd vdd _097_ sky130_fd_sc_hd__clkbuf_1
XFILLER_0_15_135 vss vss vdd vdd sky130_fd_sc_hd__fill_1
XFILLER_0_1_79 vss vss vdd vdd sky130_fd_sc_hd__decap_8
XFILLER_0_1_57 vss vss vdd vdd sky130_fd_sc_hd__fill_2
XFILLER_0_1_35 vss vss vdd vdd sky130_fd_sc_hd__decap_8
XFILLER_0_1_24 vss vss vdd vdd sky130_fd_sc_hd__decap_8
Xhold26 mem_left_track_17.DFF_1_.Q vss vss vdd vdd net99 sky130_fd_sc_hd__dlygate4sd3_1
Xhold15 mem_right_track_8.DFF_1_.Q vss vss vdd vdd net88 sky130_fd_sc_hd__dlygate4sd3_1
X_219_ mem_right_track_0.DFF_1_.Q vss vss vdd vdd _019_ sky130_fd_sc_hd__clkbuf_1
Xoutput49 net49 vss vss vdd vdd chanx_right_out[4] sky130_fd_sc_hd__clkbuf_4
Xoutput38 net38 vss vss vdd vdd chanx_left_out[2] sky130_fd_sc_hd__clkbuf_4
XFILLER_0_7_132 vss vss vdd vdd sky130_fd_sc_hd__decap_8
XFILLER_0_27_46 vss vss vdd vdd sky130_fd_sc_hd__fill_1
XTAP_119 vss vdd sky130_fd_sc_hd__tapvpwrvgnd_1
XTAP_108 vss vdd sky130_fd_sc_hd__tapvpwrvgnd_1
XPHY_2 vss vss vdd vdd sky130_fd_sc_hd__decap_3
XFILLER_0_23_3 vss vss vdd vdd sky130_ef_sc_hd__decap_12
XFILLER_0_7_34 vss vss vdd vdd sky130_ef_sc_hd__decap_12
XFILLER_0_1_105 vss vss vdd vdd sky130_fd_sc_hd__decap_6
X_484_ mux_right_track_8.mux_l1_in_0_.TGATE_0_.out _122_ vss vss vdd vdd mux_right_track_8.mux_l2_in_0_.TGATE_0_.out
+ sky130_fd_sc_hd__ebufn_1
X_467_ mux_right_track_0.INVTX1_5_.out _105_ vss vss vdd vdd mux_right_track_0.mux_l1_in_2_.TGATE_0_.out
+ sky130_fd_sc_hd__ebufn_1
X_398_ net15 vss vss vdd vdd net41 sky130_fd_sc_hd__clkbuf_1
X_252_ mem_top_track_8.DFF_0_.Q vss vss vdd vdd _030_ sky130_fd_sc_hd__clkbuf_1
X_321_ net21 vss vss vdd vdd mux_left_track_17.INVTX1_0_.out sky130_fd_sc_hd__inv_2
X_183_ mem_left_track_1.DFF_1_.Q vss vss vdd vdd _007_ sky130_fd_sc_hd__clkbuf_1
XFILLER_0_10_27 vss vss vdd vdd sky130_fd_sc_hd__fill_1
XFILLER_0_27_144 vss vss vdd vdd sky130_fd_sc_hd__fill_2
XFILLER_0_27_133 vss vss vdd vdd sky130_fd_sc_hd__fill_1
XFILLER_0_18_144 vss vss vdd vdd sky130_fd_sc_hd__fill_2
X_304_ _047_ vss vss vdd vdd _054_ sky130_fd_sc_hd__clkbuf_1
X_235_ mem_top_track_16.DFF_0_.Q vss vss vdd vdd _024_ sky130_fd_sc_hd__clkbuf_1
X_166_ _001_ vss vss vdd vdd _140_ sky130_fd_sc_hd__clkbuf_1
Xhold27 mem_right_track_0.DFF_0_.Q vss vss vdd vdd net100 sky130_fd_sc_hd__dlygate4sd3_1
Xhold16 mem_left_track_17.DFF_0_.Q vss vss vdd vdd net89 sky130_fd_sc_hd__dlygate4sd3_1
X_218_ _018_ vss vss vdd vdd _107_ sky130_fd_sc_hd__clkbuf_1
X_433__65 vss vss vdd vdd net65 _433__65/LO sky130_fd_sc_hd__conb_1
XFILLER_0_12_139 vss vss vdd vdd sky130_fd_sc_hd__fill_1
Xoutput39 net39 vss vss vdd vdd chanx_left_out[3] sky130_fd_sc_hd__clkbuf_4
XTAP_109 vss vdd sky130_fd_sc_hd__tapvpwrvgnd_1
XPHY_3 vss vss vdd vdd sky130_fd_sc_hd__decap_3
XFILLER_0_7_46 vss vss vdd vdd sky130_fd_sc_hd__decap_8
XFILLER_0_7_79 vss vss vdd vdd sky130_fd_sc_hd__fill_1
X_483_ mux_right_track_8.mux_l1_in_2_.TGATE_0_.out _121_ vss vss vdd vdd mux_right_track_8.mux_l2_in_1_.TGATE_0_.out
+ sky130_fd_sc_hd__ebufn_1
XFILLER_0_24_15 vss vss vdd vdd sky130_fd_sc_hd__fill_1
X_466_ mux_right_track_0.mux_l1_in_1_.TGATE_0_.out _104_ vss vss vdd vdd mux_right_track_0.mux_l2_in_0_.TGATE_0_.out
+ sky130_fd_sc_hd__ebufn_1
X_397_ net16 vss vss vdd vdd net42 sky130_fd_sc_hd__buf_1
XFILLER_0_5_3 vss vss vdd vdd sky130_ef_sc_hd__decap_12
X_320_ net24 vss vss vdd vdd mux_left_track_17.INVTX1_1_.out sky130_fd_sc_hd__inv_2
X_251_ mem_top_track_8.DFF_0_.Q vss vss vdd vdd _089_ sky130_fd_sc_hd__inv_2
X_182_ _006_ vss vss vdd vdd _131_ sky130_fd_sc_hd__clkbuf_1
XFILLER_0_27_101 vss vss vdd vdd sky130_fd_sc_hd__fill_2
X_449_ mux_right_track_16.INVTX1_4_.out _087_ vss vss vdd vdd mux_top_track_8.mux_l1_in_0_.TGATE_0_.out
+ sky130_fd_sc_hd__ebufn_1
XFILLER_0_25_91 vss vss vdd vdd sky130_fd_sc_hd__fill_2
X_303_ mem_top_track_0.DFF_0_.Q vss vss vdd vdd _047_ sky130_fd_sc_hd__clkbuf_1
XFILLER_0_21_38 vss vss vdd vdd sky130_fd_sc_hd__fill_1
X_165_ mem_left_track_9.DFF_1_.Q vss vss vdd vdd _001_ sky130_fd_sc_hd__clkbuf_1
XFILLER_0_1_48 vss vss vdd vdd sky130_fd_sc_hd__decap_8
X_234_ mem_top_track_16.DFF_0_.Q vss vss vdd vdd _101_ sky130_fd_sc_hd__inv_2
Xhold17 mem_top_track_16.DFF_1_.Q vss vss vdd vdd net90 sky130_fd_sc_hd__dlygate4sd3_1
Xhold28 mem_left_track_1.DFF_1_.Q vss vss vdd vdd net101 sky130_fd_sc_hd__dlygate4sd3_1
X_217_ mem_right_track_0.DFF_0_.Q vss vss vdd vdd _018_ sky130_fd_sc_hd__clkbuf_1
XFILLER_0_12_118 vss vss vdd vdd sky130_fd_sc_hd__decap_4
XFILLER_0_11_140 vss vss vdd vdd sky130_fd_sc_hd__fill_1
XPHY_4 vss vss vdd vdd sky130_fd_sc_hd__decap_3
XFILLER_0_13_39 vss vss vdd vdd sky130_fd_sc_hd__decap_8
X_482_ mux_right_track_8.mux_l2_in_0_.TGATE_0_.out _120_ vss vss vdd vdd mux_right_track_8.mux_l3_in_0_.TGATE_0_.out
+ sky130_fd_sc_hd__ebufn_2
XFILLER_0_24_27 vss vss vdd vdd sky130_fd_sc_hd__fill_1
X_465_ net70 _103_ vss vss vdd vdd mux_right_track_0.mux_l2_in_1_.TGATE_0_.out sky130_fd_sc_hd__ebufn_1
X_396_ net17 vss vss vdd vdd net43 sky130_fd_sc_hd__clkbuf_1
XFILLER_0_14_82 vss vss vdd vdd sky130_fd_sc_hd__fill_2
XFILLER_0_4_26 vss vss vdd vdd sky130_fd_sc_hd__fill_2
X_250_ mem_top_track_14.DFF_0_.D vss vss vdd vdd _088_ sky130_fd_sc_hd__inv_2
XFILLER_0_10_29 vss vss vdd vdd sky130_fd_sc_hd__fill_1
X_181_ mem_left_track_1.DFF_0_.Q vss vss vdd vdd _006_ sky130_fd_sc_hd__clkbuf_1
X_448_ net67 _086_ vss vss vdd vdd mux_top_track_8.mux_l2_in_0_.TGATE_0_.out sky130_fd_sc_hd__ebufn_1
X_379_ clknet_2_0__leaf_prog_clk net101 vss vss vdd vdd mem_left_track_1.DFF_2_.Q
+ sky130_fd_sc_hd__dfxtp_1
X_302_ mem_top_track_0.DFF_0_.Q vss vss vdd vdd _058_ sky130_fd_sc_hd__inv_2
X_164_ _000_ vss vss vdd vdd _143_ sky130_fd_sc_hd__clkbuf_1
XFILLER_0_21_17 vss vss vdd vdd sky130_fd_sc_hd__decap_4
X_233_ mem_top_track_16.DFF_1_.Q vss vss vdd vdd _100_ sky130_fd_sc_hd__inv_2
Xhold29 mem_top_track_0.DFF_0_.Q vss vss vdd vdd net102 sky130_fd_sc_hd__dlygate4sd3_1
Xhold18 mem_right_track_16.DFF_1_.Q vss vss vdd vdd net91 sky130_fd_sc_hd__dlygate4sd3_1
X_216_ mem_right_track_0.DFF_0_.Q vss vss vdd vdd _113_ sky130_fd_sc_hd__inv_2
XFILLER_0_20_141 vss vss vdd vdd sky130_fd_sc_hd__decap_4
XFILLER_0_18_8 vss vss vdd vdd sky130_fd_sc_hd__decap_4
XFILLER_0_7_113 vss vss vdd vdd sky130_fd_sc_hd__decap_4
XPHY_5 vss vss vdd vdd sky130_fd_sc_hd__decap_3
XFILLER_0_7_8 vss vss vdd vdd sky130_fd_sc_hd__fill_2
X_481_ mux_left_track_1.INVTX1_1_.out _119_ vss vss vdd vdd mux_right_track_8.mux_l1_in_0_.TGATE_0_.out
+ sky130_fd_sc_hd__ebufn_1
XFILLER_0_0_141 vss vss vdd vdd sky130_fd_sc_hd__fill_2
X_464_ mux_right_track_0.mux_l2_in_1_.TGATE_0_.out _102_ vss vss vdd vdd mux_right_track_0.mux_l3_in_0_.TGATE_0_.out
+ sky130_fd_sc_hd__ebufn_2
X_180_ mem_left_track_1.DFF_0_.Q vss vss vdd vdd _137_ sky130_fd_sc_hd__inv_2
XFILLER_0_27_125 vss vss vdd vdd sky130_fd_sc_hd__fill_2
X_447_ mux_top_track_2.INVTX1_0_.out _085_ vss vss vdd vdd mux_top_track_2.mux_l1_in_0_.TGATE_0_.out
+ sky130_fd_sc_hd__ebufn_1
X_378_ clknet_2_2__leaf_prog_clk net74 vss vss vdd vdd mem_right_track_8.DFF_0_.Q
+ sky130_fd_sc_hd__dfxtp_2
X_301_ _046_ vss vss vdd vdd _052_ sky130_fd_sc_hd__clkbuf_1
X_163_ mem_left_track_9.DFF_0_.Q vss vss vdd vdd _000_ sky130_fd_sc_hd__clkbuf_1
X_232_ mem_right_track_0.DFF_0_.D vss vss vdd vdd _098_ sky130_fd_sc_hd__inv_2
Xhold19 mem_right_track_8.DFF_0_.Q vss vss vdd vdd net92 sky130_fd_sc_hd__dlygate4sd3_1
X_215_ mem_right_track_0.DFF_1_.Q vss vss vdd vdd _110_ sky130_fd_sc_hd__inv_2
XFILLER_0_2_71 vss vss vdd vdd sky130_ef_sc_hd__decap_12
XPHY_6 vss vss vdd vdd sky130_fd_sc_hd__decap_3
XFILLER_0_4_139 vss vss vdd vdd sky130_fd_sc_hd__fill_1
X_480_ mux_right_track_8.INVTX1_3_.out _118_ vss vss vdd vdd mux_right_track_8.mux_l1_in_1_.TGATE_0_.out
+ sky130_fd_sc_hd__ebufn_1
XFILLER_0_24_29 vss vss vdd vdd sky130_fd_sc_hd__decap_3
X_463_ mux_left_track_1.INVTX1_3_.out _101_ vss vss vdd vdd mux_top_track_16.mux_l1_in_0_.TGATE_0_.out
+ sky130_fd_sc_hd__ebufn_1
X_446_ mux_top_track_2.INVTX1_2_.out _084_ vss vss vdd vdd mux_top_track_2.mux_l1_in_1_.TGATE_0_.out
+ sky130_fd_sc_hd__ebufn_1
XFILLER_0_3_3 vss vss vdd vdd sky130_ef_sc_hd__decap_12
X_377_ clknet_2_0__leaf_prog_clk net92 vss vss vdd vdd mem_right_track_8.DFF_1_.Q
+ sky130_fd_sc_hd__dfxtp_1
XFILLER_0_25_83 vss vss vdd vdd sky130_fd_sc_hd__fill_1
XFILLER_0_24_118 vss vss vdd vdd sky130_fd_sc_hd__fill_2
X_300_ mem_top_track_0.DFF_1_.Q vss vss vdd vdd _046_ sky130_fd_sc_hd__clkbuf_1
X_162_ mem_left_track_9.DFF_0_.Q vss vss vdd vdd _149_ sky130_fd_sc_hd__inv_2
X_231_ _023_ vss vss vdd vdd _103_ sky130_fd_sc_hd__clkbuf_1
X_429_ mux_right_track_16.mux_l1_in_0_.TGATE_0_.out _067_ vss vss vdd vdd mux_right_track_16.mux_l2_in_0_.TGATE_0_.out
+ sky130_fd_sc_hd__ebufn_1
Xclkbuf_0_prog_clk prog_clk vss vss vdd vdd clknet_0_prog_clk sky130_fd_sc_hd__clkbuf_16
Xinput1 ccff_head vss vss vdd vdd net1 sky130_fd_sc_hd__buf_1
XTAP_90 vss vdd sky130_fd_sc_hd__tapvpwrvgnd_1
X_214_ mem_right_track_0.DFF_2_.Q vss vss vdd vdd _108_ sky130_fd_sc_hd__inv_2
XFILLER_0_2_83 vss vss vdd vdd sky130_fd_sc_hd__fill_1
XFILLER_0_11_110 vss vss vdd vdd sky130_fd_sc_hd__fill_2
XFILLER_0_27_29 vss vss vdd vdd sky130_fd_sc_hd__fill_1
XPHY_7 vss vss vdd vdd sky130_fd_sc_hd__decap_3
X_462_ mux_top_track_16.mux_l1_in_0_.TGATE_0_.out _100_ vss vss vdd vdd mux_top_track_16.mux_l2_in_0_.TGATE_0_.out
+ sky130_fd_sc_hd__ebufn_1
XFILLER_0_4_18 vss vss vdd vdd sky130_fd_sc_hd__decap_8
XFILLER_0_4_29 vss vss vdd vdd sky130_ef_sc_hd__decap_12
XFILLER_0_14_96 vss vss vdd vdd sky130_fd_sc_hd__fill_1
XFILLER_0_14_41 vss vss vdd vdd sky130_fd_sc_hd__fill_2
X_445_ mux_top_track_2.mux_l1_in_0_.TGATE_0_.out _083_ vss vss vdd vdd mux_top_track_2.mux_l2_in_0_.TGATE_0_.out
+ sky130_fd_sc_hd__ebufn_2
X_376_ clknet_2_2__leaf_prog_clk net88 vss vss vdd vdd mem_right_track_16.DFF_0_.D
+ sky130_fd_sc_hd__dfxtp_1
X_230_ mem_right_track_0.DFF_1_.Q vss vss vdd vdd _023_ sky130_fd_sc_hd__clkbuf_1
X_161_ mem_left_track_9.DFF_1_.Q vss vss vdd vdd _146_ sky130_fd_sc_hd__inv_2
X_428_ mux_right_track_16.INVTX1_4_.out _066_ vss vss vdd vdd mux_right_track_16.mux_l2_in_1_.TGATE_0_.out
+ sky130_fd_sc_hd__ebufn_1
X_359_ clknet_2_3__leaf_prog_clk net93 vss vss vdd vdd mem_right_track_16.DFF_1_.Q
+ sky130_fd_sc_hd__dfxtp_1
XFILLER_0_14_141 vss vss vdd vdd sky130_fd_sc_hd__fill_2
XTAP_91 vss vdd sky130_fd_sc_hd__tapvpwrvgnd_1
Xinput2 chanx_left_in[0] vss vss vdd vdd net2 sky130_fd_sc_hd__buf_1
XTAP_80 vss vdd sky130_fd_sc_hd__tapvpwrvgnd_1
X_213_ _017_ vss vss vdd vdd _115_ sky130_fd_sc_hd__clkbuf_1
XFILLER_0_22_85 vss vss vdd vdd sky130_fd_sc_hd__fill_1
XFILLER_0_11_122 vss vss vdd vdd sky130_ef_sc_hd__decap_12
XFILLER_0_11_144 vss vss vdd vdd sky130_fd_sc_hd__fill_2
XPHY_8 vss vss vdd vdd sky130_fd_sc_hd__decap_3
X_461_ mux_top_track_16.INVTX1_3_.out _099_ vss vss vdd vdd mux_top_track_16.mux_l2_in_1_.TGATE_0_.out
+ sky130_fd_sc_hd__ebufn_1
X_444_ mux_left_track_17.INVTX1_3_.out _082_ vss vss vdd vdd mux_top_track_2.mux_l1_in_0_.TGATE_0_.out
+ sky130_fd_sc_hd__ebufn_1
X_375_ clknet_2_3__leaf_prog_clk net81 vss vss vdd vdd mem_right_track_0.DFF_0_.Q
+ sky130_fd_sc_hd__dfxtp_2
X_427_ mux_right_track_16.mux_l2_in_0_.TGATE_0_.out _065_ vss vss vdd vdd mux_right_track_16.mux_l3_in_0_.TGATE_0_.out
+ sky130_fd_sc_hd__ebufn_2
X_358_ clknet_2_2__leaf_prog_clk net91 vss vss vdd vdd mem_left_track_1.DFF_0_.D sky130_fd_sc_hd__dfxtp_1
X_289_ _042_ vss vss vdd vdd _063_ sky130_fd_sc_hd__clkbuf_1