* NGSPICE file created from sb_1__10_.ext - technology: sky130A

* Black-box entry subcircuit for sky130_fd_sc_hd__inv_2 abstract view
.subckt sky130_fd_sc_hd__inv_2 A VGND VNB VPB VPWR Y
.ends

* Black-box entry subcircuit for sky130_fd_sc_hd__clkbuf_1 abstract view
.subckt sky130_fd_sc_hd__clkbuf_1 A VGND VNB VPB VPWR X
.ends

* Black-box entry subcircuit for sky130_fd_sc_hd__ebufn_1 abstract view
.subckt sky130_fd_sc_hd__ebufn_1 A TE_B VGND VNB VPB VPWR Z
.ends

* Black-box entry subcircuit for sky130_fd_sc_hd__dfxtp_1 abstract view
.subckt sky130_fd_sc_hd__dfxtp_1 CLK D VGND VNB VPB VPWR Q
.ends

* Black-box entry subcircuit for sky130_fd_sc_hd__fill_1 abstract view
.subckt sky130_fd_sc_hd__fill_1 VGND VNB VPB VPWR
.ends

* Black-box entry subcircuit for sky130_ef_sc_hd__decap_12 abstract view
.subckt sky130_ef_sc_hd__decap_12 VGND VNB VPB VPWR
.ends

* Black-box entry subcircuit for sky130_fd_sc_hd__dlygate4sd3_1 abstract view
.subckt sky130_fd_sc_hd__dlygate4sd3_1 A VGND VNB VPB VPWR X
.ends

* Black-box entry subcircuit for sky130_fd_sc_hd__diode_2 abstract view
.subckt sky130_fd_sc_hd__diode_2 DIODE VGND VNB VPB VPWR
.ends

* Black-box entry subcircuit for sky130_fd_sc_hd__fill_2 abstract view
.subckt sky130_fd_sc_hd__fill_2 VGND VNB VPB VPWR
.ends

* Black-box entry subcircuit for sky130_fd_sc_hd__clkbuf_4 abstract view
.subckt sky130_fd_sc_hd__clkbuf_4 A VGND VNB VPB VPWR X
.ends

* Black-box entry subcircuit for sky130_fd_sc_hd__buf_2 abstract view
.subckt sky130_fd_sc_hd__buf_2 A VGND VNB VPB VPWR X
.ends

* Black-box entry subcircuit for sky130_fd_sc_hd__tapvpwrvgnd_1 abstract view
.subckt sky130_fd_sc_hd__tapvpwrvgnd_1 VGND VPWR
.ends

* Black-box entry subcircuit for sky130_fd_sc_hd__buf_1 abstract view
.subckt sky130_fd_sc_hd__buf_1 A VGND VNB VPB VPWR X
.ends

* Black-box entry subcircuit for sky130_fd_sc_hd__decap_4 abstract view
.subckt sky130_fd_sc_hd__decap_4 VGND VNB VPB VPWR
.ends

* Black-box entry subcircuit for sky130_fd_sc_hd__decap_8 abstract view
.subckt sky130_fd_sc_hd__decap_8 VGND VNB VPB VPWR
.ends

* Black-box entry subcircuit for sky130_fd_sc_hd__decap_3 abstract view
.subckt sky130_fd_sc_hd__decap_3 VGND VNB VPB VPWR
.ends

* Black-box entry subcircuit for sky130_fd_sc_hd__conb_1 abstract view
.subckt sky130_fd_sc_hd__conb_1 VGND VNB VPB VPWR HI LO
.ends

* Black-box entry subcircuit for sky130_fd_sc_hd__clkbuf_16 abstract view
.subckt sky130_fd_sc_hd__clkbuf_16 A VGND VNB VPB VPWR X
.ends

* Black-box entry subcircuit for sky130_fd_sc_hd__ebufn_2 abstract view
.subckt sky130_fd_sc_hd__ebufn_2 A TE_B VGND VNB VPB VPWR Z
.ends

* Black-box entry subcircuit for sky130_fd_sc_hd__decap_6 abstract view
.subckt sky130_fd_sc_hd__decap_6 VGND VNB VPB VPWR
.ends

* Black-box entry subcircuit for sky130_fd_sc_hd__dfxtp_2 abstract view
.subckt sky130_fd_sc_hd__dfxtp_2 CLK D VGND VNB VPB VPWR Q
.ends

* Black-box entry subcircuit for sky130_fd_sc_hd__dlymetal6s2s_1 abstract view
.subckt sky130_fd_sc_hd__dlymetal6s2s_1 A VGND VNB VPB VPWR X
.ends

.subckt sb_1__10_ bottom_left_grid_right_width_0_height_0_subtile_0__pin_O_3_ bottom_right_grid_left_width_0_height_0_subtile_0__pin_O_1_
+ ccff_head ccff_tail chanx_left_in[0] chanx_left_in[1] chanx_left_in[2] chanx_left_in[3]
+ chanx_left_in[4] chanx_left_in[5] chanx_left_in[6] chanx_left_in[7] chanx_left_in[8]
+ chanx_left_out[0] chanx_left_out[1] chanx_left_out[2] chanx_left_out[3] chanx_left_out[4]
+ chanx_left_out[5] chanx_left_out[6] chanx_left_out[7] chanx_left_out[8] chanx_right_in[0]
+ chanx_right_in[1] chanx_right_in[2] chanx_right_in[3] chanx_right_in[4] chanx_right_in[5]
+ chanx_right_in[6] chanx_right_in[7] chanx_right_in[8] chanx_right_out[0] chanx_right_out[1]
+ chanx_right_out[2] chanx_right_out[3] chanx_right_out[4] chanx_right_out[5] chanx_right_out[6]
+ chanx_right_out[7] chanx_right_out[8] chany_bottom_in[0] chany_bottom_in[1] chany_bottom_in[2]
+ chany_bottom_in[3] chany_bottom_in[4] chany_bottom_in[5] chany_bottom_in[6] chany_bottom_in[7]
+ chany_bottom_in[8] chany_bottom_out[0] chany_bottom_out[1] chany_bottom_out[2] chany_bottom_out[3]
+ chany_bottom_out[4] chany_bottom_out[5] chany_bottom_out[6] chany_bottom_out[7]
+ chany_bottom_out[8] left_bottom_grid_top_width_0_height_0_subtile_0__pin_O_2_ left_top_grid_bottom_width_0_height_0_subtile_0__pin_inpad_0_
+ prog_clk right_bottom_grid_top_width_0_height_0_subtile_0__pin_O_2_ right_top_grid_bottom_width_0_height_0_subtile_0__pin_inpad_0_
+ vdd vss
X_363_ net1 vss vss vdd vdd mux_bottom_track_3.INVTX1_0_.out sky130_fd_sc_hd__inv_2
X_294_ mem_left_track_1.DFF_2_.Q vss vss vdd vdd _039_ sky130_fd_sc_hd__clkbuf_1
X_501_ mux_bottom_track_3.INVTX1_1_.out _105_ vss vss vdd vdd mux_right_track_16.mux_l1_in_1_.TGATE_0_.out
+ sky130_fd_sc_hd__ebufn_1
X_346_ net32 vss vss vdd vdd mux_left_track_1.INVTX1_5_.out sky130_fd_sc_hd__inv_2
X_415_ clknet_2_3__leaf_prog_clk net86 vss vss vdd vdd mem_bottom_track_11.DFF_1_.Q
+ sky130_fd_sc_hd__dfxtp_1
X_277_ _033_ vss vss vdd vdd _090_ sky130_fd_sc_hd__clkbuf_1
X_200_ mem_bottom_track_11.DFF_0_.D vss vss vdd vdd _144_ sky130_fd_sc_hd__inv_2
X_329_ _050_ vss vss vdd vdd _056_ sky130_fd_sc_hd__clkbuf_1
XFILLER_0_10_85 vss vss vdd vdd sky130_fd_sc_hd__fill_1
XFILLER_0_21_73 vss vss vdd vdd sky130_fd_sc_hd__fill_1
XFILLER_0_26_29 vss vss vdd vdd sky130_ef_sc_hd__decap_12
Xhold30 mem_left_track_17.DFF_0_.Q vss vss vdd vdd net107 sky130_fd_sc_hd__dlygate4sd3_1
XFILLER_0_1_94 vss vss vdd vdd sky130_fd_sc_hd__fill_1
XANTENNA_5 chany_bottom_in[5] vss vss vdd vdd sky130_fd_sc_hd__diode_2
XFILLER_0_20_9 vss vss vdd vdd sky130_fd_sc_hd__fill_2
Xoutput42 net42 vss vss vdd vdd chanx_left_out[6] sky130_fd_sc_hd__clkbuf_4
Xoutput53 net53 vss vss vdd vdd chanx_right_out[8] sky130_fd_sc_hd__buf_2
XTAP_123 vss vdd sky130_fd_sc_hd__tapvpwrvgnd_1
XTAP_112 vss vdd sky130_fd_sc_hd__tapvpwrvgnd_1
XTAP_101 vss vdd sky130_fd_sc_hd__tapvpwrvgnd_1
X_293_ _038_ vss vss vdd vdd _082_ sky130_fd_sc_hd__buf_1
X_362_ net6 vss vss vdd vdd mux_bottom_track_3.INVTX1_1_.out sky130_fd_sc_hd__inv_2
X_500_ mux_right_track_16.mux_l1_in_1_.TGATE_0_.out _104_ vss vss vdd vdd mux_right_track_16.mux_l2_in_0_.TGATE_0_.out
+ sky130_fd_sc_hd__ebufn_1
X_276_ mem_left_track_17.DFF_0_.D vss vss vdd vdd _033_ sky130_fd_sc_hd__clkbuf_1
X_345_ net24 vss vss vdd vdd mux_left_track_1.INVTX1_2_.out sky130_fd_sc_hd__inv_2
X_414_ clknet_2_2__leaf_prog_clk net90 vss vss vdd vdd mem_bottom_track_9.DFF_0_.Q
+ sky130_fd_sc_hd__dfxtp_1
X_328_ mem_right_track_0.DFF_0_.Q vss vss vdd vdd _050_ sky130_fd_sc_hd__clkbuf_1
X_259_ mem_right_track_16.DFF_0_.Q vss vss vdd vdd _027_ sky130_fd_sc_hd__clkbuf_1
XFILLER_0_21_41 vss vss vdd vdd sky130_ef_sc_hd__decap_12
XFILLER_0_27_3 vss vss vdd vdd sky130_fd_sc_hd__decap_4
Xhold31 mem_right_track_8.DFF_1_.Q vss vss vdd vdd net108 sky130_fd_sc_hd__dlygate4sd3_1
Xhold20 mem_right_track_0.DFF_2_.Q vss vss vdd vdd net97 sky130_fd_sc_hd__dlygate4sd3_1
XANTENNA_6 chany_bottom_in[8] vss vss vdd vdd sky130_fd_sc_hd__diode_2
XFILLER_0_6_29 vss vss vdd vdd sky130_fd_sc_hd__fill_2
Xoutput43 net43 vss vss vdd vdd chanx_left_out[7] sky130_fd_sc_hd__clkbuf_4
Xoutput54 net54 vss vss vdd vdd chany_bottom_out[0] sky130_fd_sc_hd__clkbuf_4
XTAP_124 vss vdd sky130_fd_sc_hd__tapvpwrvgnd_1
XTAP_113 vss vdd sky130_fd_sc_hd__tapvpwrvgnd_1
XTAP_102 vss vdd sky130_fd_sc_hd__tapvpwrvgnd_1
X_292_ mem_left_track_1.DFF_0_.Q vss vss vdd vdd _038_ sky130_fd_sc_hd__clkbuf_1
X_361_ mux_bottom_track_3.mux_l2_in_0_.TGATE_0_.out vss vss vdd vdd net55 sky130_fd_sc_hd__inv_2
XFILLER_0_13_75 vss vss vdd vdd sky130_fd_sc_hd__fill_2
X_344_ net27 vss vss vdd vdd mux_left_track_1.INVTX1_3_.out sky130_fd_sc_hd__inv_2
X_275_ _032_ vss vss vdd vdd _094_ sky130_fd_sc_hd__clkbuf_1
X_413_ clknet_2_3__leaf_prog_clk net78 vss vss vdd vdd mem_bottom_track_11.DFF_0_.D
+ sky130_fd_sc_hd__dfxtp_1
XFILLER_0_24_85 vss vss vdd vdd sky130_ef_sc_hd__decap_12
XFILLER_0_24_52 vss vss vdd vdd sky130_ef_sc_hd__decap_12
XFILLER_0_24_41 vss vss vdd vdd sky130_fd_sc_hd__decap_8
XFILLER_0_19_105 vss vss vdd vdd sky130_fd_sc_hd__fill_1
X_327_ mem_right_track_0.DFF_0_.Q vss vss vdd vdd _064_ sky130_fd_sc_hd__inv_2
X_258_ mem_right_track_16.DFF_0_.Q vss vss vdd vdd _110_ sky130_fd_sc_hd__inv_2
X_189_ mem_bottom_track_13.DFF_0_.Q vss vss vdd vdd _153_ sky130_fd_sc_hd__inv_2
XFILLER_0_24_141 vss vss vdd vdd sky130_fd_sc_hd__fill_1
XFILLER_0_21_53 vss vss vdd vdd sky130_fd_sc_hd__decap_3
XFILLER_0_15_130 vss vss vdd vdd sky130_fd_sc_hd__decap_4
XANTENNA_7 left_top_grid_bottom_width_0_height_0_subtile_0__pin_inpad_0_ vss vss vdd
+ vdd sky130_fd_sc_hd__diode_2
XFILLER_0_21_111 vss vss vdd vdd sky130_fd_sc_hd__fill_1
Xhold32 mem_right_track_0.DFF_0_.Q vss vss vdd vdd net109 sky130_fd_sc_hd__dlygate4sd3_1
Xhold10 mem_bottom_track_17.DFF_0_.Q vss vss vdd vdd net87 sky130_fd_sc_hd__dlygate4sd3_1
Xhold21 mem_bottom_track_15.DFF_0_.Q vss vss vdd vdd net98 sky130_fd_sc_hd__dlygate4sd3_1
XFILLER_0_8_138 vss vss vdd vdd sky130_fd_sc_hd__fill_2
Xoutput44 net44 vss vss vdd vdd chanx_left_out[8] sky130_fd_sc_hd__clkbuf_4
Xoutput55 net55 vss vss vdd vdd chany_bottom_out[1] sky130_fd_sc_hd__clkbuf_4
XFILLER_0_9_3 vss vss vdd vdd sky130_fd_sc_hd__fill_2
XTAP_125 vss vdd sky130_fd_sc_hd__tapvpwrvgnd_1
XFILLER_0_27_85 vss vss vdd vdd sky130_ef_sc_hd__decap_12
XFILLER_0_27_41 vss vss vdd vdd sky130_ef_sc_hd__decap_12
XTAP_114 vss vdd sky130_fd_sc_hd__tapvpwrvgnd_1
XTAP_103 vss vdd sky130_fd_sc_hd__tapvpwrvgnd_1
X_291_ mem_left_track_1.DFF_0_.Q vss vss vdd vdd _088_ sky130_fd_sc_hd__inv_2
X_360_ net11 vss vss vdd vdd mux_bottom_track_1.INVTX1_2_.out sky130_fd_sc_hd__inv_2
XFILLER_0_4_141 vss vss vdd vdd sky130_fd_sc_hd__fill_2
XFILLER_0_7_84 vss vss vdd vdd sky130_fd_sc_hd__fill_2
X_489_ mux_left_track_9.INVTX1_5_.out _093_ vss vss vdd vdd mux_left_track_9.mux_l1_in_2_.TGATE_0_.out
+ sky130_fd_sc_hd__ebufn_1
XFILLER_0_13_10 vss vss vdd vdd sky130_fd_sc_hd__fill_2
X_343_ net30 vss vss vdd vdd mux_left_track_1.INVTX1_4_.out sky130_fd_sc_hd__inv_2
X_274_ mem_left_track_9.DFF_0_.Q vss vss vdd vdd _032_ sky130_fd_sc_hd__clkbuf_1
X_412_ clknet_2_3__leaf_prog_clk net88 vss vss vdd vdd mem_bottom_track_7.DFF_0_.Q
+ sky130_fd_sc_hd__dfxtp_1
XFILLER_0_24_97 vss vss vdd vdd sky130_ef_sc_hd__decap_12
XFILLER_0_24_64 vss vss vdd vdd sky130_ef_sc_hd__decap_12
X_519__69 vss vss vdd vdd net69 _519__69/LO sky130_fd_sc_hd__conb_1
X_257_ _026_ vss vss vdd vdd _104_ sky130_fd_sc_hd__clkbuf_1
X_188_ mem_bottom_track_13.DFF_1_.Q vss vss vdd vdd _152_ sky130_fd_sc_hd__inv_2
XFILLER_0_19_53 vss vss vdd vdd sky130_fd_sc_hd__decap_3
XFILLER_0_19_20 vss vss vdd vdd sky130_fd_sc_hd__fill_1
X_326_ _049_ vss vss vdd vdd _058_ sky130_fd_sc_hd__clkbuf_1
XFILLER_0_19_128 vss vss vdd vdd sky130_fd_sc_hd__fill_1
X_309_ mem_right_track_8.DFF_0_.Q vss vss vdd vdd _076_ sky130_fd_sc_hd__inv_2
XANTENNA_8 chanx_right_in[1] vss vss vdd vdd sky130_fd_sc_hd__diode_2
Xhold22 mem_left_track_17.DFF_1_.Q vss vss vdd vdd net99 sky130_fd_sc_hd__dlygate4sd3_1
Xhold33 mem_left_track_9.DFF_1_.Q vss vss vdd vdd net110 sky130_fd_sc_hd__dlygate4sd3_1
Xhold11 mem_bottom_track_5.DFF_1_.Q vss vss vdd vdd net88 sky130_fd_sc_hd__dlygate4sd3_1
XFILLER_0_16_21 vss vss vdd vdd sky130_fd_sc_hd__fill_1
Xoutput45 net45 vss vss vdd vdd chanx_right_out[0] sky130_fd_sc_hd__buf_2
Xoutput56 net56 vss vss vdd vdd chany_bottom_out[2] sky130_fd_sc_hd__clkbuf_4
XFILLER_0_27_97 vss vss vdd vdd sky130_ef_sc_hd__decap_12
XFILLER_0_27_53 vss vss vdd vdd sky130_fd_sc_hd__decap_3
XTAP_126 vss vdd sky130_fd_sc_hd__tapvpwrvgnd_1
XTAP_115 vss vdd sky130_fd_sc_hd__tapvpwrvgnd_1
XTAP_104 vss vdd sky130_fd_sc_hd__tapvpwrvgnd_1
XFILLER_0_11_8 vss vss vdd vdd sky130_fd_sc_hd__fill_1
X_290_ _037_ vss vss vdd vdd _080_ sky130_fd_sc_hd__clkbuf_1
X_557_ mux_bottom_track_17.INVTX1_0_.out _161_ vss vss vdd vdd mux_bottom_track_17.mux_l1_in_0_.TGATE_0_.out
+ sky130_fd_sc_hd__ebufn_1
X_488_ mux_left_track_9.mux_l1_in_1_.TGATE_0_.out _092_ vss vss vdd vdd mux_left_track_9.mux_l2_in_0_.TGATE_0_.out
+ sky130_fd_sc_hd__ebufn_1
X_342_ mux_left_track_1.mux_l3_in_0_.TGATE_0_.out vss vss vdd vdd net36 sky130_fd_sc_hd__inv_2
X_411_ clknet_2_2__leaf_prog_clk net79 vss vss vdd vdd mem_bottom_track_7.DFF_1_.Q
+ sky130_fd_sc_hd__dfxtp_1
X_273_ mem_left_track_9.DFF_0_.Q vss vss vdd vdd _100_ sky130_fd_sc_hd__inv_2
XFILLER_0_24_76 vss vss vdd vdd sky130_fd_sc_hd__decap_8
X_325_ mem_right_track_0.DFF_1_.Q vss vss vdd vdd _049_ sky130_fd_sc_hd__clkbuf_1
X_187_ _003_ vss vss vdd vdd _154_ sky130_fd_sc_hd__clkbuf_1
X_256_ mem_right_track_16.DFF_1_.Q vss vss vdd vdd _026_ sky130_fd_sc_hd__clkbuf_1
XFILLER_0_24_121 vss vss vdd vdd sky130_ef_sc_hd__decap_12
X_239_ mem_left_track_17.DFF_0_.Q vss vss vdd vdd _020_ sky130_fd_sc_hd__clkbuf_1
X_308_ _043_ vss vss vdd vdd _068_ sky130_fd_sc_hd__clkbuf_1
Xhold12 mem_right_track_16.DFF_0_.D vss vss vdd vdd net89 sky130_fd_sc_hd__dlygate4sd3_1
Xhold23 mem_bottom_track_3.DFF_0_.Q vss vss vdd vdd net100 sky130_fd_sc_hd__dlygate4sd3_1
Xhold34 mem_bottom_track_1.DFF_0_.Q vss vss vdd vdd net111 sky130_fd_sc_hd__dlygate4sd3_1
XFILLER_0_21_113 vss vss vdd vdd sky130_ef_sc_hd__decap_12
XFILLER_0_16_55 vss vss vdd vdd sky130_fd_sc_hd__fill_1
XANTENNA_9 mux_bottom_track_17.INVTX1_1_.out vss vss vdd vdd sky130_fd_sc_hd__diode_2
XFILLER_0_8_118 vss vss vdd vdd sky130_fd_sc_hd__fill_1
Xclkbuf_2_3__f_prog_clk clknet_0_prog_clk vss vss vdd vdd clknet_2_3__leaf_prog_clk
+ sky130_fd_sc_hd__clkbuf_16
Xoutput35 net35 vss vss vdd vdd ccff_tail sky130_fd_sc_hd__clkbuf_4
Xoutput46 net46 vss vss vdd vdd chanx_right_out[1] sky130_fd_sc_hd__clkbuf_4
Xoutput57 net57 vss vss vdd vdd chany_bottom_out[3] sky130_fd_sc_hd__clkbuf_4
XTAP_127 vss vdd sky130_fd_sc_hd__tapvpwrvgnd_1
XTAP_116 vss vdd sky130_fd_sc_hd__tapvpwrvgnd_1
XTAP_105 vss vdd sky130_fd_sc_hd__tapvpwrvgnd_1
X_487_ net66 _091_ vss vss vdd vdd mux_left_track_9.mux_l2_in_1_.TGATE_0_.out sky130_fd_sc_hd__ebufn_1
XFILLER_0_13_23 vss vss vdd vdd sky130_fd_sc_hd__fill_2
X_556_ mux_bottom_track_17.mux_l1_in_0_.TGATE_0_.out _160_ vss vss vdd vdd mux_bottom_track_17.mux_l2_in_0_.TGATE_0_.out
+ sky130_fd_sc_hd__ebufn_2
X_341_ net33 vss vss vdd vdd mux_right_track_8.INVTX1_0_.out sky130_fd_sc_hd__inv_2
X_410_ clknet_2_2__leaf_prog_clk net91 vss vss vdd vdd mem_bottom_track_5.DFF_0_.Q
+ sky130_fd_sc_hd__dfxtp_1
X_272_ _031_ vss vss vdd vdd _092_ sky130_fd_sc_hd__clkbuf_1
X_539_ mux_bottom_track_9.INVTX1_1_.out _143_ vss vss vdd vdd mux_bottom_track_9.mux_l1_in_0_.TGATE_0_.out
+ sky130_fd_sc_hd__ebufn_1
XFILLER_0_4_32 vss vss vdd vdd sky130_fd_sc_hd__fill_1
X_255_ _025_ vss vss vdd vdd _106_ sky130_fd_sc_hd__clkbuf_1
X_324_ mem_right_track_0.DFF_0_.Q vss vss vdd vdd _065_ sky130_fd_sc_hd__inv_2
XFILLER_0_19_11 vss vss vdd vdd sky130_fd_sc_hd__fill_2
X_186_ mem_bottom_track_15.DFF_1_.Q vss vss vdd vdd _003_ sky130_fd_sc_hd__clkbuf_1
X_542__74 vss vss vdd vdd net74 _542__74/LO sky130_fd_sc_hd__conb_1
XFILLER_0_27_141 vss vss vdd vdd sky130_fd_sc_hd__fill_2
XFILLER_0_19_77 vss vss vdd vdd sky130_fd_sc_hd__fill_1
XFILLER_0_18_141 vss vss vdd vdd sky130_fd_sc_hd__fill_1
Xclkbuf_2_2__f_prog_clk clknet_0_prog_clk vss vss vdd vdd clknet_2_2__leaf_prog_clk
+ sky130_fd_sc_hd__clkbuf_16
XFILLER_0_24_133 vss vss vdd vdd sky130_fd_sc_hd__decap_6
X_238_ mem_left_track_17.DFF_0_.Q vss vss vdd vdd _121_ sky130_fd_sc_hd__inv_2
X_307_ mem_right_track_8.DFF_1_.Q vss vss vdd vdd _043_ sky130_fd_sc_hd__clkbuf_1
Xhold35 mem_left_track_1.DFF_0_.Q vss vss vdd vdd net112 sky130_fd_sc_hd__dlygate4sd3_1
Xhold13 mem_bottom_track_7.DFF_1_.Q vss vss vdd vdd net90 sky130_fd_sc_hd__dlygate4sd3_1
Xhold24 mem_left_track_9.DFF_0_.Q vss vss vdd vdd net101 sky130_fd_sc_hd__dlygate4sd3_1
XFILLER_0_21_103 vss vss vdd vdd sky130_fd_sc_hd__decap_8
XFILLER_0_16_12 vss vss vdd vdd sky130_fd_sc_hd__fill_1
XFILLER_0_8_108 vss vss vdd vdd sky130_fd_sc_hd__fill_1
Xoutput36 net36 vss vss vdd vdd chanx_left_out[0] sky130_fd_sc_hd__clkbuf_4
Xoutput47 net47 vss vss vdd vdd chanx_right_out[2] sky130_fd_sc_hd__buf_2
Xoutput58 net58 vss vss vdd vdd chany_bottom_out[4] sky130_fd_sc_hd__clkbuf_4
XTAP_128 vss vdd sky130_fd_sc_hd__tapvpwrvgnd_1
XTAP_117 vss vdd sky130_fd_sc_hd__tapvpwrvgnd_1
XTAP_106 vss vdd sky130_fd_sc_hd__tapvpwrvgnd_1
XPHY_0 vss vss vdd vdd sky130_fd_sc_hd__decap_3
XFILLER_0_7_98 vss vss vdd vdd sky130_fd_sc_hd__fill_1
X_486_ mux_left_track_9.mux_l2_in_1_.TGATE_0_.out _090_ vss vss vdd vdd mux_left_track_9.mux_l3_in_0_.TGATE_0_.out
+ sky130_fd_sc_hd__ebufn_2
X_555_ mux_bottom_track_17.INVTX1_1_.out _159_ vss vss vdd vdd mux_bottom_track_17.mux_l1_in_0_.TGATE_0_.out
+ sky130_fd_sc_hd__ebufn_1
X_340_ mux_right_track_8.mux_l3_in_0_.TGATE_0_.out vss vss vdd vdd net49 sky130_fd_sc_hd__inv_2
X_538_ net73 _142_ vss vss vdd vdd mux_bottom_track_9.mux_l2_in_0_.TGATE_0_.out sky130_fd_sc_hd__ebufn_2
X_271_ mem_left_track_9.DFF_1_.Q vss vss vdd vdd _031_ sky130_fd_sc_hd__clkbuf_1
X_469_ mux_right_track_8.mux_l1_in_2_.TGATE_0_.out _073_ vss vss vdd vdd mux_right_track_8.mux_l2_in_1_.TGATE_0_.out
+ sky130_fd_sc_hd__ebufn_1
X_323_ _048_ vss vss vdd vdd _054_ sky130_fd_sc_hd__clkbuf_1
X_254_ mem_right_track_16.DFF_0_.Q vss vss vdd vdd _025_ sky130_fd_sc_hd__buf_1
Xclkbuf_2_1__f_prog_clk clknet_0_prog_clk vss vss vdd vdd clknet_2_1__leaf_prog_clk
+ sky130_fd_sc_hd__clkbuf_16
X_185_ _002_ vss vss vdd vdd _155_ sky130_fd_sc_hd__buf_1
XFILLER_0_21_57 vss vss vdd vdd sky130_ef_sc_hd__decap_12
X_237_ mem_left_track_17.DFF_1_.Q vss vss vdd vdd _119_ sky130_fd_sc_hd__inv_2
X_306_ _042_ vss vss vdd vdd _071_ sky130_fd_sc_hd__clkbuf_1
Xhold14 mem_bottom_track_3.DFF_1_.Q vss vss vdd vdd net91 sky130_fd_sc_hd__dlygate4sd3_1
Xhold25 mem_right_track_16.DFF_0_.Q vss vss vdd vdd net102 sky130_fd_sc_hd__dlygate4sd3_1
Xoutput37 net37 vss vss vdd vdd chanx_left_out[1] sky130_fd_sc_hd__clkbuf_4
Xoutput48 net48 vss vss vdd vdd chanx_right_out[3] sky130_fd_sc_hd__buf_2
Xoutput59 net59 vss vss vdd vdd chany_bottom_out[5] sky130_fd_sc_hd__clkbuf_4
XTAP_129 vss vdd sky130_fd_sc_hd__tapvpwrvgnd_1
XTAP_118 vss vdd sky130_fd_sc_hd__tapvpwrvgnd_1
XTAP_107 vss vdd sky130_fd_sc_hd__tapvpwrvgnd_1
XPHY_1 vss vss vdd vdd sky130_fd_sc_hd__decap_3
X_554_ net77 _158_ vss vss vdd vdd mux_bottom_track_17.mux_l2_in_0_.TGATE_0_.out sky130_fd_sc_hd__ebufn_2
X_485_ mux_bottom_track_15.INVTX1_0_.out _089_ vss vss vdd vdd mux_left_track_1.mux_l1_in_0_.TGATE_0_.out
+ sky130_fd_sc_hd__ebufn_2
Xclkbuf_2_0__f_prog_clk clknet_0_prog_clk vss vss vdd vdd clknet_2_0__leaf_prog_clk
+ sky130_fd_sc_hd__clkbuf_16
X_270_ _030_ vss vss vdd vdd _095_ sky130_fd_sc_hd__clkbuf_1
X_468_ mux_right_track_8.mux_l2_in_0_.TGATE_0_.out _072_ vss vss vdd vdd mux_right_track_8.mux_l3_in_0_.TGATE_0_.out
+ sky130_fd_sc_hd__ebufn_2
X_399_ clknet_2_0__leaf_prog_clk net105 vss vss vdd vdd mem_bottom_track_1.DFF_0_.D
+ sky130_fd_sc_hd__dfxtp_1
X_537_ mux_bottom_track_7.INVTX1_0_.out _141_ vss vss vdd vdd mux_bottom_track_7.mux_l1_in_0_.TGATE_0_.out
+ sky130_fd_sc_hd__ebufn_1
X_322_ mem_right_track_0.DFF_0_.Q vss vss vdd vdd _048_ sky130_fd_sc_hd__clkbuf_1
XFILLER_0_19_57 vss vss vdd vdd sky130_fd_sc_hd__decap_4
X_253_ mem_right_track_16.DFF_0_.Q vss vss vdd vdd _111_ sky130_fd_sc_hd__inv_2
XFILLER_0_19_24 vss vss vdd vdd sky130_fd_sc_hd__fill_2
X_184_ mem_bottom_track_15.DFF_0_.Q vss vss vdd vdd _002_ sky130_fd_sc_hd__buf_1
X_236_ net35 vss vss vdd vdd _117_ sky130_fd_sc_hd__inv_2
XFILLER_0_21_69 vss vss vdd vdd sky130_fd_sc_hd__decap_4
X_305_ mem_right_track_8.DFF_0_.Q vss vss vdd vdd _042_ sky130_fd_sc_hd__clkbuf_1
XFILLER_0_15_113 vss vss vdd vdd sky130_fd_sc_hd__fill_1
XFILLER_0_11_91 vss vss vdd vdd sky130_fd_sc_hd__fill_2
Xhold26 mem_right_track_8.DFF_0_.Q vss vss vdd vdd net103 sky130_fd_sc_hd__dlygate4sd3_1
Xhold15 mem_bottom_track_17.DFF_1_.Q vss vss vdd vdd net92 sky130_fd_sc_hd__dlygate4sd3_1
X_219_ mem_bottom_track_3.DFF_0_.Q vss vss vdd vdd _133_ sky130_fd_sc_hd__inv_2
Xoutput38 net38 vss vss vdd vdd chanx_left_out[2] sky130_fd_sc_hd__clkbuf_4
Xoutput49 net49 vss vss vdd vdd chanx_right_out[4] sky130_fd_sc_hd__buf_2
XFILLER_0_7_110 vss vss vdd vdd sky130_fd_sc_hd__fill_2
XFILLER_0_27_57 vss vss vdd vdd sky130_ef_sc_hd__decap_12
XTAP_119 vss vdd sky130_fd_sc_hd__tapvpwrvgnd_1
XTAP_108 vss vdd sky130_fd_sc_hd__tapvpwrvgnd_1
XPHY_2 vss vss vdd vdd sky130_fd_sc_hd__decap_3
X_484_ mux_left_track_1.INVTX1_2_.out _088_ vss vss vdd vdd mux_left_track_1.mux_l1_in_1_.TGATE_0_.out
+ sky130_fd_sc_hd__ebufn_1
X_553_ mux_bottom_track_15.INVTX1_0_.out _157_ vss vss vdd vdd mux_bottom_track_15.mux_l1_in_0_.TGATE_0_.out
+ sky130_fd_sc_hd__ebufn_1
X_467_ mux_left_track_9.INVTX1_2_.out _071_ vss vss vdd vdd mux_right_track_8.mux_l1_in_0_.TGATE_0_.out
+ sky130_fd_sc_hd__ebufn_1
X_398_ clknet_2_0__leaf_prog_clk net81 vss vss vdd vdd mem_left_track_9.DFF_0_.Q sky130_fd_sc_hd__dfxtp_2
X_536_ mux_bottom_track_7.mux_l1_in_0_.TGATE_0_.out _140_ vss vss vdd vdd mux_bottom_track_7.mux_l2_in_0_.TGATE_0_.out
+ sky130_fd_sc_hd__ebufn_2
X_321_ mem_right_track_0.DFF_1_.Q vss vss vdd vdd _061_ sky130_fd_sc_hd__inv_2
X_252_ mem_right_track_16.DFF_1_.Q vss vss vdd vdd _109_ sky130_fd_sc_hd__inv_2
X_183_ mem_bottom_track_15.DFF_0_.Q vss vss vdd vdd _157_ sky130_fd_sc_hd__inv_2
XFILLER_0_27_133 vss vss vdd vdd sky130_fd_sc_hd__fill_1
X_519_ net69 _123_ vss vss vdd vdd mux_bottom_track_1.mux_l1_in_1_.TGATE_0_.out sky130_fd_sc_hd__ebufn_1
XFILLER_0_21_37 vss vss vdd vdd sky130_fd_sc_hd__fill_2
XFILLER_0_21_15 vss vss vdd vdd sky130_fd_sc_hd__fill_2
X_235_ _019_ vss vss vdd vdd _123_ sky130_fd_sc_hd__buf_1
X_304_ mem_right_track_8.DFF_0_.Q vss vss vdd vdd _077_ sky130_fd_sc_hd__inv_2
XFILLER_0_21_128 vss vss vdd vdd sky130_ef_sc_hd__decap_12
Xhold27 mem_right_track_0.DFF_1_.Q vss vss vdd vdd net104 sky130_fd_sc_hd__dlygate4sd3_1
Xhold16 mem_bottom_track_11.DFF_0_.D vss vss vdd vdd net93 sky130_fd_sc_hd__dlygate4sd3_1
XFILLER_0_16_37 vss vss vdd vdd sky130_fd_sc_hd__fill_2
X_218_ mem_bottom_track_3.DFF_1_.Q vss vss vdd vdd _131_ sky130_fd_sc_hd__inv_2
Xoutput39 net39 vss vss vdd vdd chanx_left_out[3] sky130_fd_sc_hd__clkbuf_4
XFILLER_0_27_69 vss vss vdd vdd sky130_ef_sc_hd__decap_12
XTAP_109 vss vdd sky130_fd_sc_hd__tapvpwrvgnd_1
XFILLER_0_17_91 vss vss vdd vdd sky130_fd_sc_hd__decap_4
XPHY_3 vss vss vdd vdd sky130_fd_sc_hd__decap_3
XFILLER_0_7_79 vss vss vdd vdd sky130_fd_sc_hd__fill_2
X_552_ mux_bottom_track_15.mux_l1_in_0_.TGATE_0_.out _156_ vss vss vdd vdd mux_bottom_track_15.mux_l2_in_0_.TGATE_0_.out
+ sky130_fd_sc_hd__ebufn_2
X_483_ mux_left_track_1.INVTX1_4_.out _087_ vss vss vdd vdd mux_left_track_1.mux_l1_in_2_.TGATE_0_.out
+ sky130_fd_sc_hd__ebufn_1
XFILLER_0_24_15 vss vss vdd vdd sky130_ef_sc_hd__decap_12
X_466_ mux_left_track_9.INVTX1_4_.out _070_ vss vss vdd vdd mux_right_track_8.mux_l1_in_1_.TGATE_0_.out
+ sky130_fd_sc_hd__ebufn_1
X_397_ clknet_2_1__leaf_prog_clk net101 vss vss vdd vdd mem_left_track_9.DFF_1_.Q
+ sky130_fd_sc_hd__dfxtp_1
XFILLER_0_5_3 vss vss vdd vdd sky130_fd_sc_hd__fill_2
X_535_ mux_bottom_track_7.INVTX1_1_.out _139_ vss vss vdd vdd mux_bottom_track_7.mux_l1_in_0_.TGATE_0_.out
+ sky130_fd_sc_hd__ebufn_1
XFILLER_0_19_15 vss vss vdd vdd sky130_fd_sc_hd__fill_2
X_320_ mem_right_track_0.DFF_2_.Q vss vss vdd vdd _063_ sky130_fd_sc_hd__inv_2
X_182_ mem_bottom_track_15.DFF_1_.Q vss vss vdd vdd _156_ sky130_fd_sc_hd__inv_2
X_251_ mem_bottom_track_1.DFF_0_.D vss vss vdd vdd _107_ sky130_fd_sc_hd__inv_2
X_449_ net4 vss vss vdd vdd net46 sky130_fd_sc_hd__clkbuf_1
X_518_ mux_bottom_track_1.mux_l1_in_1_.TGATE_0_.out _122_ vss vss vdd vdd mux_bottom_track_1.mux_l2_in_0_.TGATE_0_.out
+ sky130_fd_sc_hd__ebufn_2
X_234_ mem_bottom_track_1.DFF_0_.Q vss vss vdd vdd _019_ sky130_fd_sc_hd__clkbuf_1
X_303_ mem_right_track_8.DFF_1_.Q vss vss vdd vdd _074_ sky130_fd_sc_hd__inv_2
XFILLER_0_1_15 vss vss vdd vdd sky130_fd_sc_hd__fill_2
Xhold17 mem_bottom_track_13.DFF_1_.Q vss vss vdd vdd net94 sky130_fd_sc_hd__dlygate4sd3_1
Xhold28 mem_right_track_16.DFF_1_.Q vss vss vdd vdd net105 sky130_fd_sc_hd__dlygate4sd3_1
X_217_ _013_ vss vss vdd vdd _134_ sky130_fd_sc_hd__clkbuf_1
XPHY_4 vss vss vdd vdd sky130_fd_sc_hd__decap_3
XFILLER_0_4_104 vss vss vdd vdd sky130_fd_sc_hd__fill_2
X_551_ mux_bottom_track_15.INVTX1_1_.out _155_ vss vss vdd vdd mux_bottom_track_15.mux_l1_in_0_.TGATE_0_.out
+ sky130_fd_sc_hd__ebufn_1
X_482_ mux_left_track_1.mux_l1_in_0_.TGATE_0_.out _086_ vss vss vdd vdd mux_left_track_1.mux_l2_in_0_.TGATE_0_.out
+ sky130_fd_sc_hd__ebufn_1
XFILLER_0_24_27 vss vss vdd vdd sky130_fd_sc_hd__fill_1
X_396_ clknet_2_1__leaf_prog_clk net110 vss vss vdd vdd mem_left_track_17.DFF_0_.D
+ sky130_fd_sc_hd__dfxtp_1
X_534_ net72 _138_ vss vss vdd vdd mux_bottom_track_7.mux_l2_in_0_.TGATE_0_.out sky130_fd_sc_hd__ebufn_2
X_465_ mux_bottom_track_7.INVTX1_1_.out _069_ vss vss vdd vdd mux_right_track_8.mux_l1_in_2_.TGATE_0_.out
+ sky130_fd_sc_hd__ebufn_1
XFILLER_0_14_93 vss vss vdd vdd sky130_fd_sc_hd__fill_1
X_250_ _024_ vss vss vdd vdd _113_ sky130_fd_sc_hd__clkbuf_1
X_181_ _001_ vss vss vdd vdd _158_ sky130_fd_sc_hd__buf_1
X_463__64 vss vss vdd vdd net64 _463__64/LO sky130_fd_sc_hd__conb_1
XFILLER_0_27_113 vss vss vdd vdd sky130_ef_sc_hd__decap_12
X_517_ mux_bottom_track_11.INVTX1_0_.out _121_ vss vss vdd vdd mux_left_track_17.mux_l1_in_0_.TGATE_0_.out
+ sky130_fd_sc_hd__ebufn_1
X_448_ net5 vss vss vdd vdd net47 sky130_fd_sc_hd__clkbuf_1
X_379_ net20 vss vss vdd vdd mux_bottom_track_13.INVTX1_1_.out sky130_fd_sc_hd__inv_2
XFILLER_0_25_81 vss vss vdd vdd sky130_ef_sc_hd__decap_12
X_233_ mem_bottom_track_1.DFF_0_.Q vss vss vdd vdd _126_ sky130_fd_sc_hd__inv_2
X_302_ mem_right_track_16.DFF_0_.D vss vss vdd vdd _072_ sky130_fd_sc_hd__inv_2
XFILLER_0_1_38 vss vss vdd vdd sky130_fd_sc_hd__fill_2
Xhold18 mem_bottom_track_15.DFF_1_.Q vss vss vdd vdd net95 sky130_fd_sc_hd__dlygate4sd3_1
Xhold29 mem_left_track_1.DFF_1_.Q vss vss vdd vdd net106 sky130_fd_sc_hd__dlygate4sd3_1
XFILLER_0_25_9 vss vss vdd vdd sky130_ef_sc_hd__decap_12
XFILLER_0_22_82 vss vss vdd vdd sky130_fd_sc_hd__fill_2
XFILLER_0_20_141 vss vss vdd vdd sky130_fd_sc_hd__fill_1
X_216_ mem_bottom_track_5.DFF_1_.Q vss vss vdd vdd _013_ sky130_fd_sc_hd__clkbuf_1
XFILLER_0_27_27 vss vss vdd vdd sky130_fd_sc_hd__fill_1
XPHY_5 vss vss vdd vdd sky130_fd_sc_hd__decap_3
XFILLER_0_23_6 vss vss vdd vdd sky130_fd_sc_hd__fill_2
X_550_ net76 _154_ vss vss vdd vdd mux_bottom_track_15.mux_l2_in_0_.TGATE_0_.out sky130_fd_sc_hd__ebufn_2
X_481_ mux_left_track_1.mux_l1_in_2_.TGATE_0_.out _085_ vss vss vdd vdd mux_left_track_1.mux_l2_in_1_.TGATE_0_.out
+ sky130_fd_sc_hd__ebufn_1
X_554__77 vss vss vdd vdd net77 _554__77/LO sky130_fd_sc_hd__conb_1
X_533_ mux_bottom_track_5.INVTX1_0_.out _137_ vss vss vdd vdd mux_bottom_track_5.mux_l1_in_0_.TGATE_0_.out
+ sky130_fd_sc_hd__ebufn_1
X_464_ mux_right_track_8.mux_l1_in_1_.TGATE_0_.out _068_ vss vss vdd vdd mux_right_track_8.mux_l2_in_0_.TGATE_0_.out
+ sky130_fd_sc_hd__ebufn_1
X_395_ clknet_2_2__leaf_prog_clk net92 vss vss vdd vdd mem_left_track_1.DFF_0_.Q sky130_fd_sc_hd__dfxtp_2
XFILLER_0_4_27 vss vss vdd vdd sky130_fd_sc_hd__fill_1
X_180_ mem_bottom_track_17.DFF_1_.Q vss vss vdd vdd _001_ sky130_fd_sc_hd__buf_1
XFILLER_0_27_125 vss vss vdd vdd sky130_fd_sc_hd__decap_8
X_516_ mux_left_track_17.INVTX1_2_.out _120_ vss vss vdd vdd mux_left_track_17.mux_l1_in_1_.TGATE_0_.out
+ sky130_fd_sc_hd__ebufn_1
X_447_ net6 vss vss vdd vdd net48 sky130_fd_sc_hd__clkbuf_1
X_378_ net14 vss vss vdd vdd mux_bottom_track_13.INVTX1_0_.out sky130_fd_sc_hd__inv_2
XFILLER_0_25_93 vss vss vdd vdd sky130_ef_sc_hd__decap_12
XFILLER_0_24_139 vss vss vdd vdd sky130_fd_sc_hd__fill_1
X_232_ _018_ vss vss vdd vdd _122_ sky130_fd_sc_hd__buf_1
X_301_ _041_ vss vss vdd vdd _079_ sky130_fd_sc_hd__clkbuf_1
Xhold19 mem_bottom_track_13.DFF_0_.Q vss vss vdd vdd net96 sky130_fd_sc_hd__dlygate4sd3_1
X_215_ _012_ vss vss vdd vdd _135_ sky130_fd_sc_hd__clkbuf_1
XPHY_6 vss vss vdd vdd sky130_fd_sc_hd__decap_3
XFILLER_0_7_49 vss vss vdd vdd sky130_fd_sc_hd__fill_1
X_480_ mux_left_track_1.mux_l2_in_0_.TGATE_0_.out _084_ vss vss vdd vdd mux_left_track_1.mux_l3_in_0_.TGATE_0_.out
+ sky130_fd_sc_hd__ebufn_2
XFILLER_0_14_3 vss vss vdd vdd sky130_fd_sc_hd__fill_1
XFILLER_0_24_29 vss vss vdd vdd sky130_ef_sc_hd__decap_12
X_463_ net64 _067_ vss vss vdd vdd mux_right_track_8.mux_l2_in_1_.TGATE_0_.out sky130_fd_sc_hd__ebufn_1
X_394_ clknet_2_0__leaf_prog_clk net112 vss vss vdd vdd mem_left_track_1.DFF_1_.Q
+ sky130_fd_sc_hd__dfxtp_1
X_532_ mux_bottom_track_5.mux_l1_in_0_.TGATE_0_.out _136_ vss vss vdd vdd mux_bottom_track_5.mux_l2_in_0_.TGATE_0_.out
+ sky130_fd_sc_hd__ebufn_2
X_446_ net8 vss vss vdd vdd net50 sky130_fd_sc_hd__clkbuf_1
X_515_ mux_left_track_17.mux_l1_in_0_.TGATE_0_.out _119_ vss vss vdd vdd mux_left_track_17.mux_l2_in_0_.TGATE_0_.out
+ sky130_fd_sc_hd__ebufn_1
X_377_ mux_bottom_track_13.mux_l2_in_0_.TGATE_0_.out vss vss vdd vdd net60 sky130_fd_sc_hd__inv_2
X_300_ mem_left_track_1.DFF_1_.Q vss vss vdd vdd _041_ sky130_fd_sc_hd__clkbuf_1
X_231_ mem_bottom_track_1.DFF_1_.Q vss vss vdd vdd _018_ sky130_fd_sc_hd__buf_1
XFILLER_0_5_71 vss vss vdd vdd sky130_fd_sc_hd__fill_2
Xinput1 bottom_left_grid_right_width_0_height_0_subtile_0__pin_O_3_ vss vss vdd vdd
+ net1 sky130_fd_sc_hd__clkbuf_1
Xclkbuf_0_prog_clk prog_clk vss vss vdd vdd clknet_0_prog_clk sky130_fd_sc_hd__clkbuf_16
XTAP_90 vss vdd sky130_fd_sc_hd__tapvpwrvgnd_1
X_214_ mem_bottom_track_5.DFF_0_.Q vss vss vdd vdd _012_ sky130_fd_sc_hd__clkbuf_1
XFILLER_0_27_29 vss vss vdd vdd sky130_ef_sc_hd__decap_12
XPHY_7 vss vss vdd vdd sky130_fd_sc_hd__decap_3
XFILLER_0_17_95 vss vss vdd vdd sky130_fd_sc_hd__fill_1
X_462_ mux_right_track_8.mux_l2_in_1_.TGATE_0_.out _066_ vss vss vdd vdd mux_right_track_8.mux_l3_in_0_.TGATE_0_.out
+ sky130_fd_sc_hd__ebufn_2
X_531_ mux_bottom_track_5.INVTX1_1_.out _135_ vss vss vdd vdd mux_bottom_track_5.mux_l1_in_0_.TGATE_0_.out
+ sky130_fd_sc_hd__ebufn_1
X_393_ clknet_2_0__leaf_prog_clk net106 vss vss vdd vdd mem_left_track_1.DFF_2_.Q
+ sky130_fd_sc_hd__dfxtp_1
XFILLER_0_14_85 vss vss vdd vdd sky130_fd_sc_hd__fill_2