* NGSPICE file created from sb_1__1_.ext - technology: sky130A

* Black-box entry subcircuit for sky130_fd_sc_hd__inv_2 abstract view
.subckt sky130_fd_sc_hd__inv_2 A VGND VNB VPB VPWR Y
.ends

* Black-box entry subcircuit for sky130_fd_sc_hd__clkbuf_1 abstract view
.subckt sky130_fd_sc_hd__clkbuf_1 A VGND VNB VPB VPWR X
.ends

* Black-box entry subcircuit for sky130_fd_sc_hd__ebufn_1 abstract view
.subckt sky130_fd_sc_hd__ebufn_1 A TE_B VGND VNB VPB VPWR Z
.ends

* Black-box entry subcircuit for sky130_fd_sc_hd__fill_2 abstract view
.subckt sky130_fd_sc_hd__fill_2 VGND VNB VPB VPWR
.ends

* Black-box entry subcircuit for sky130_fd_sc_hd__fill_1 abstract view
.subckt sky130_fd_sc_hd__fill_1 VGND VNB VPB VPWR
.ends

* Black-box entry subcircuit for sky130_fd_sc_hd__dlygate4sd3_1 abstract view
.subckt sky130_fd_sc_hd__dlygate4sd3_1 A VGND VNB VPB VPWR X
.ends

* Black-box entry subcircuit for sky130_fd_sc_hd__dfxtp_1 abstract view
.subckt sky130_fd_sc_hd__dfxtp_1 CLK D VGND VNB VPB VPWR Q
.ends

* Black-box entry subcircuit for sky130_fd_sc_hd__clkbuf_4 abstract view
.subckt sky130_fd_sc_hd__clkbuf_4 A VGND VNB VPB VPWR X
.ends

* Black-box entry subcircuit for sky130_fd_sc_hd__dfxtp_2 abstract view
.subckt sky130_fd_sc_hd__dfxtp_2 CLK D VGND VNB VPB VPWR Q
.ends

* Black-box entry subcircuit for sky130_fd_sc_hd__tapvpwrvgnd_1 abstract view
.subckt sky130_fd_sc_hd__tapvpwrvgnd_1 VGND VPWR
.ends

* Black-box entry subcircuit for sky130_fd_sc_hd__conb_1 abstract view
.subckt sky130_fd_sc_hd__conb_1 VGND VNB VPB VPWR HI LO
.ends

* Black-box entry subcircuit for sky130_fd_sc_hd__ebufn_2 abstract view
.subckt sky130_fd_sc_hd__ebufn_2 A TE_B VGND VNB VPB VPWR Z
.ends

* Black-box entry subcircuit for sky130_fd_sc_hd__decap_6 abstract view
.subckt sky130_fd_sc_hd__decap_6 VGND VNB VPB VPWR
.ends

* Black-box entry subcircuit for sky130_fd_sc_hd__decap_3 abstract view
.subckt sky130_fd_sc_hd__decap_3 VGND VNB VPB VPWR
.ends

* Black-box entry subcircuit for sky130_fd_sc_hd__buf_2 abstract view
.subckt sky130_fd_sc_hd__buf_2 A VGND VNB VPB VPWR X
.ends

* Black-box entry subcircuit for sky130_fd_sc_hd__decap_4 abstract view
.subckt sky130_fd_sc_hd__decap_4 VGND VNB VPB VPWR
.ends

* Black-box entry subcircuit for sky130_fd_sc_hd__clkbuf_16 abstract view
.subckt sky130_fd_sc_hd__clkbuf_16 A VGND VNB VPB VPWR X
.ends

* Black-box entry subcircuit for sky130_fd_sc_hd__buf_1 abstract view
.subckt sky130_fd_sc_hd__buf_1 A VGND VNB VPB VPWR X
.ends

* Black-box entry subcircuit for sky130_fd_sc_hd__clkbuf_2 abstract view
.subckt sky130_fd_sc_hd__clkbuf_2 A VGND VNB VPB VPWR X
.ends

* Black-box entry subcircuit for sky130_fd_sc_hd__dlymetal6s2s_1 abstract view
.subckt sky130_fd_sc_hd__dlymetal6s2s_1 A VGND VNB VPB VPWR X
.ends

* Black-box entry subcircuit for sky130_ef_sc_hd__decap_12 abstract view
.subckt sky130_ef_sc_hd__decap_12 VGND VNB VPB VPWR
.ends

.subckt sb_1__1_ bottom_left_grid_right_width_0_height_0_subtile_0__pin_O_3_ bottom_right_grid_left_width_0_height_0_subtile_0__pin_O_1_
+ ccff_head ccff_tail chanx_left_in[0] chanx_left_in[1] chanx_left_in[2] chanx_left_in[3]
+ chanx_left_in[4] chanx_left_in[5] chanx_left_in[6] chanx_left_in[7] chanx_left_in[8]
+ chanx_left_out[0] chanx_left_out[1] chanx_left_out[2] chanx_left_out[3] chanx_left_out[4]
+ chanx_left_out[5] chanx_left_out[6] chanx_left_out[7] chanx_left_out[8] chanx_right_in[0]
+ chanx_right_in[1] chanx_right_in[2] chanx_right_in[3] chanx_right_in[4] chanx_right_in[5]
+ chanx_right_in[6] chanx_right_in[7] chanx_right_in[8] chanx_right_out[0] chanx_right_out[1]
+ chanx_right_out[2] chanx_right_out[3] chanx_right_out[4] chanx_right_out[5] chanx_right_out[6]
+ chanx_right_out[7] chanx_right_out[8] chany_bottom_in[0] chany_bottom_in[1] chany_bottom_in[2]
+ chany_bottom_in[3] chany_bottom_in[4] chany_bottom_in[5] chany_bottom_in[6] chany_bottom_in[7]
+ chany_bottom_in[8] chany_bottom_out[0] chany_bottom_out[1] chany_bottom_out[2] chany_bottom_out[3]
+ chany_bottom_out[4] chany_bottom_out[5] chany_bottom_out[6] chany_bottom_out[7]
+ chany_bottom_out[8] chany_top_in[0] chany_top_in[1] chany_top_in[2] chany_top_in[3]
+ chany_top_in[4] chany_top_in[5] chany_top_in[6] chany_top_in[7] chany_top_in[8]
+ chany_top_out[0] chany_top_out[1] chany_top_out[2] chany_top_out[3] chany_top_out[4]
+ chany_top_out[5] chany_top_out[6] chany_top_out[7] chany_top_out[8] left_bottom_grid_top_width_0_height_0_subtile_0__pin_O_2_
+ left_top_grid_bottom_width_0_height_0_subtile_0__pin_O_0_ prog_clk right_bottom_grid_top_width_0_height_0_subtile_0__pin_O_2_
+ right_top_grid_bottom_width_0_height_0_subtile_0__pin_O_0_ top_left_grid_right_width_0_height_0_subtile_0__pin_O_3_
+ top_right_grid_left_width_0_height_0_subtile_0__pin_O_1_ vdd vss
X_501_ net37 vss vss vdd vdd mux_bottom_track_17.INVTX1_1_.out sky130_fd_sc_hd__inv_2
X_432_ mem_top_track_0.DFF_1_.Q vss vss vdd vdd _119_ sky130_fd_sc_hd__inv_2
X_363_ mem_right_track_16.DFF_0_.D vss vss vdd vdd _074_ sky130_fd_sc_hd__clkbuf_1
X_981_ mux_bottom_track_17.INVTX1_2_.out _309_ vss vss vdd vdd mux_left_track_17.mux_l2_in_1_.TGATE_0_.out
+ sky130_fd_sc_hd__ebufn_1
XFILLER_0_18_18 vss vss vdd vdd sky130_fd_sc_hd__fill_2
X_415_ mem_top_track_8.DFF_1_.Q vss vss vdd vdd _091_ sky130_fd_sc_hd__clkbuf_1
X_346_ _068_ vss vss vdd vdd _179_ sky130_fd_sc_hd__clkbuf_1
X_329_ mem_bottom_track_1.DFF_0_.Q vss vss vdd vdd _062_ sky130_fd_sc_hd__clkbuf_1
XFILLER_0_0_29 vss vss vdd vdd sky130_fd_sc_hd__fill_2
X_964_ mux_bottom_track_17.INVTX1_5_.out _292_ vss vss vdd vdd mux_bottom_track_17.mux_l2_in_2_.TGATE_0_.out
+ sky130_fd_sc_hd__ebufn_1
X_895_ mux_left_track_1.mux_l2_in_0_.TGATE_0_.out _223_ vss vss vdd vdd mux_left_track_1.mux_l3_in_0_.TGATE_0_.out
+ sky130_fd_sc_hd__ebufn_1
XFILLER_0_10_41 vss vss vdd vdd sky130_fd_sc_hd__fill_1
XFILLER_0_10_96 vss vss vdd vdd sky130_fd_sc_hd__fill_1
XFILLER_0_35_93 vss vss vdd vdd sky130_fd_sc_hd__fill_2
XFILLER_0_35_60 vss vss vdd vdd sky130_fd_sc_hd__fill_2
X_947_ mux_bottom_track_9.INVTX1_7_.out _275_ vss vss vdd vdd mux_right_track_16.mux_l2_in_3_.TGATE_0_.out
+ sky130_fd_sc_hd__ebufn_1
X_680_ mem_bottom_track_9.DFF_1_.Q vss vss vdd vdd _207_ sky130_fd_sc_hd__inv_2
X_878_ mux_bottom_track_9.INVTX1_8_.out _206_ vss vss vdd vdd mux_bottom_track_9.mux_l2_in_3_.TGATE_0_.out
+ sky130_fd_sc_hd__ebufn_1
Xhold30 mem_left_track_17.DFF_2_.Q vss vss vdd vdd net124 sky130_fd_sc_hd__dlygate4sd3_1
XFILLER_0_26_29 vss vss vdd vdd sky130_fd_sc_hd__fill_1
X_594_ mem_top_track_16.DFF_1_.Q vss vss vdd vdd _028_ sky130_fd_sc_hd__clkbuf_1
Xhold41 mem_top_track_8.DFF_1_.Q vss vss vdd vdd net135 sky130_fd_sc_hd__dlygate4sd3_1
X_732_ clknet_2_1__leaf_prog_clk net129 vss vss vdd vdd mem_bottom_track_17.DFF_3_.Q
+ sky130_fd_sc_hd__dfxtp_1
X_663_ mem_bottom_track_9.DFF_1_.Q vss vss vdd vdd _209_ sky130_fd_sc_hd__inv_2
X_801_ mux_bottom_track_17.INVTX1_4_.out _129_ vss vss vdd vdd mux_top_track_8.mux_l1_in_1_.TGATE_0_.out
+ sky130_fd_sc_hd__ebufn_1
XFILLER_0_32_83 vss vss vdd vdd sky130_fd_sc_hd__fill_1
Xoutput75 net75 vss vss vdd vdd chany_top_out[1] sky130_fd_sc_hd__clkbuf_4
Xoutput53 net53 vss vss vdd vdd chanx_left_out[6] sky130_fd_sc_hd__clkbuf_4
Xoutput64 net64 vss vss vdd vdd chanx_right_out[8] sky130_fd_sc_hd__clkbuf_4
X_715_ clknet_2_0__leaf_prog_clk net98 vss vss vdd vdd mem_bottom_track_9.DFF_0_.Q
+ sky130_fd_sc_hd__dfxtp_2
X_646_ _045_ vss vss vdd vdd _214_ sky130_fd_sc_hd__clkbuf_1
X_577_ _022_ vss vss vdd vdd _268_ sky130_fd_sc_hd__clkbuf_1
XTAP_156 vss vdd sky130_fd_sc_hd__tapvpwrvgnd_1
XTAP_145 vss vdd sky130_fd_sc_hd__tapvpwrvgnd_1
XTAP_134 vss vdd sky130_fd_sc_hd__tapvpwrvgnd_1
XTAP_123 vss vdd sky130_fd_sc_hd__tapvpwrvgnd_1
XTAP_112 vss vdd sky130_fd_sc_hd__tapvpwrvgnd_1
XTAP_101 vss vdd sky130_fd_sc_hd__tapvpwrvgnd_1
X_362_ _073_ vss vss vdd vdd _163_ sky130_fd_sc_hd__clkbuf_1
X_431_ mem_top_track_0.DFF_2_.Q vss vss vdd vdd _115_ sky130_fd_sc_hd__inv_2
X_500_ net15 vss vss vdd vdd mux_bottom_track_17.INVTX1_2_.out sky130_fd_sc_hd__inv_2
X_629_ mem_left_track_9.DFF_2_.Q vss vss vdd vdd _040_ sky130_fd_sc_hd__clkbuf_1
XFILLER_0_34_29 vss vss vdd vdd sky130_fd_sc_hd__fill_1
X_980_ mux_left_track_17.INVTX1_5_.out _308_ vss vss vdd vdd mux_left_track_17.mux_l2_in_2_.TGATE_0_.out
+ sky130_fd_sc_hd__ebufn_1
X_414_ mem_top_track_8.DFF_1_.Q vss vss vdd vdd _136_ sky130_fd_sc_hd__inv_2
X_345_ mem_bottom_track_1.DFF_1_.Q vss vss vdd vdd _068_ sky130_fd_sc_hd__clkbuf_1
XFILLER_0_4_72 vss vss vdd vdd sky130_fd_sc_hd__fill_2
XFILLER_0_28_115 vss vss vdd vdd sky130_fd_sc_hd__fill_2
X_328_ mem_bottom_track_1.DFF_0_.Q vss vss vdd vdd _192_ sky130_fd_sc_hd__inv_2
X_894_ mux_left_track_1.mux_l2_in_2_.TGATE_0_.out _222_ vss vss vdd vdd mux_left_track_1.mux_l3_in_1_.TGATE_0_.out
+ sky130_fd_sc_hd__ebufn_1
X_963_ mux_bottom_track_17.INVTX1_7_.out _291_ vss vss vdd vdd mux_bottom_track_17.mux_l2_in_3_.TGATE_0_.out
+ sky130_fd_sc_hd__ebufn_1
XFILLER_0_34_129 vss vss vdd vdd sky130_fd_sc_hd__fill_2
XFILLER_0_25_107 vss vss vdd vdd sky130_fd_sc_hd__fill_2
X_946_ mux_right_track_16.mux_l2_in_0_.TGATE_0_.out _274_ vss vss vdd vdd mux_right_track_16.mux_l3_in_0_.TGATE_0_.out
+ sky130_fd_sc_hd__ebufn_1
X_877_ mux_bottom_track_9.mux_l2_in_0_.TGATE_0_.out _205_ vss vss vdd vdd mux_bottom_track_9.mux_l3_in_0_.TGATE_0_.out
+ sky130_fd_sc_hd__ebufn_1
Xhold42 mem_left_track_17.DFF_1_.Q vss vss vdd vdd net136 sky130_fd_sc_hd__dlygate4sd3_1
X_731_ clknet_2_2__leaf_prog_clk net101 vss vss vdd vdd mem_right_track_16.DFF_0_.Q
+ sky130_fd_sc_hd__dfxtp_1
Xhold20 mem_right_track_16.DFF_2_.Q vss vss vdd vdd net114 sky130_fd_sc_hd__dlygate4sd3_1
Xhold31 mem_top_track_16.DFF_2_.Q vss vss vdd vdd net125 sky130_fd_sc_hd__dlygate4sd3_1
X_800_ mux_top_track_8.mux_l1_in_1_.TGATE_0_.out _128_ vss vss vdd vdd mux_top_track_8.mux_l2_in_0_.TGATE_0_.out
+ sky130_fd_sc_hd__ebufn_1
X_662_ mem_bottom_track_9.DFF_2_.Q vss vss vdd vdd _205_ sky130_fd_sc_hd__inv_2
X_815__85 vss vss vdd vdd net85 _815__85/LO sky130_fd_sc_hd__conb_1
X_929_ mux_top_track_16.mux_l2_in_2_.TGATE_0_.out _257_ vss vss vdd vdd mux_top_track_16.mux_l3_in_1_.TGATE_0_.out
+ sky130_fd_sc_hd__ebufn_1
X_593_ mem_top_track_16.DFF_1_.Q vss vss vdd vdd _261_ sky130_fd_sc_hd__inv_2
XFILLER_0_32_51 vss vss vdd vdd sky130_fd_sc_hd__fill_1
Xoutput76 net76 vss vss vdd vdd chany_top_out[2] sky130_fd_sc_hd__clkbuf_4
Xoutput54 net54 vss vss vdd vdd chanx_left_out[7] sky130_fd_sc_hd__clkbuf_4
X_714_ clknet_2_0__leaf_prog_clk net130 vss vss vdd vdd mem_bottom_track_9.DFF_1_.Q
+ sky130_fd_sc_hd__dfxtp_2
Xoutput65 net65 vss vss vdd vdd chany_bottom_out[0] sky130_fd_sc_hd__clkbuf_4
X_645_ mem_left_track_1.DFF_2_.Q vss vss vdd vdd _045_ sky130_fd_sc_hd__clkbuf_1
X_576_ mem_right_track_16.DFF_1_.Q vss vss vdd vdd _022_ sky130_fd_sc_hd__clkbuf_1
XTAP_157 vss vdd sky130_fd_sc_hd__tapvpwrvgnd_1
XTAP_146 vss vdd sky130_fd_sc_hd__tapvpwrvgnd_1
XFILLER_0_27_73 vss vss vdd vdd sky130_fd_sc_hd__fill_1
XTAP_135 vss vdd sky130_fd_sc_hd__tapvpwrvgnd_1
XTAP_124 vss vdd sky130_fd_sc_hd__tapvpwrvgnd_1
XTAP_113 vss vdd sky130_fd_sc_hd__tapvpwrvgnd_1
XTAP_102 vss vdd sky130_fd_sc_hd__tapvpwrvgnd_1
X_361_ mem_right_track_8.DFF_1_.Q vss vss vdd vdd _073_ sky130_fd_sc_hd__clkbuf_1
X_430_ mem_top_track_0.DFF_3_.Q vss vss vdd vdd _113_ sky130_fd_sc_hd__inv_2
XFILLER_0_7_83 vss vss vdd vdd sky130_fd_sc_hd__fill_2
X_628_ _039_ vss vss vdd vdd _234_ sky130_fd_sc_hd__clkbuf_1
X_559_ mem_bottom_track_1.DFF_0_.D vss vss vdd vdd _272_ sky130_fd_sc_hd__inv_2
X_939__92 vss vss vdd vdd net92 _939__92/LO sky130_fd_sc_hd__conb_1
X_344_ mem_bottom_track_1.DFF_1_.Q vss vss vdd vdd _188_ sky130_fd_sc_hd__inv_2
X_413_ _090_ vss vss vdd vdd _124_ sky130_fd_sc_hd__clkbuf_1
X_962_ mux_bottom_track_17.mux_l2_in_0_.TGATE_0_.out _290_ vss vss vdd vdd mux_bottom_track_17.mux_l3_in_0_.TGATE_0_.out
+ sky130_fd_sc_hd__ebufn_1
X_893_ mux_left_track_1.mux_l3_in_0_.TGATE_0_.out _221_ vss vss vdd vdd mux_left_track_1.mux_l4_in_0_.TGATE_0_.out
+ sky130_fd_sc_hd__ebufn_2
XFILLER_0_19_127 vss vss vdd vdd sky130_fd_sc_hd__decap_6
XFILLER_0_19_96 vss vss vdd vdd sky130_fd_sc_hd__fill_2
X_327_ _061_ vss vss vdd vdd _182_ sky130_fd_sc_hd__clkbuf_1
X_833__86 vss vss vdd vdd net86 _833__86/LO sky130_fd_sc_hd__conb_1
X_945_ mux_right_track_16.mux_l2_in_2_.TGATE_0_.out _273_ vss vss vdd vdd mux_right_track_16.mux_l3_in_1_.TGATE_0_.out
+ sky130_fd_sc_hd__ebufn_1
X_876_ mux_bottom_track_9.mux_l2_in_2_.TGATE_0_.out _204_ vss vss vdd vdd mux_bottom_track_9.mux_l3_in_1_.TGATE_0_.out
+ sky130_fd_sc_hd__ebufn_1
XFILLER_0_30_144 vss vss vdd vdd sky130_fd_sc_hd__fill_2
XFILLER_0_30_133 vss vss vdd vdd sky130_fd_sc_hd__fill_1
XFILLER_0_1_52 vss vss vdd vdd sky130_fd_sc_hd__fill_1
Xhold32 mem_top_track_0.DFF_0_.Q vss vss vdd vdd net126 sky130_fd_sc_hd__dlygate4sd3_1
X_730_ clknet_2_2__leaf_prog_clk net100 vss vss vdd vdd mem_right_track_16.DFF_1_.Q
+ sky130_fd_sc_hd__dfxtp_2
X_928_ mux_top_track_16.mux_l3_in_0_.TGATE_0_.out _256_ vss vss vdd vdd mux_top_track_16.mux_l4_in_0_.TGATE_0_.out
+ sky130_fd_sc_hd__ebufn_2
X_592_ _027_ vss vss vdd vdd _250_ sky130_fd_sc_hd__clkbuf_1
Xhold21 mem_bottom_track_9.DFF_2_.Q vss vss vdd vdd net115 sky130_fd_sc_hd__dlygate4sd3_1
X_661_ mem_bottom_track_17.DFF_0_.D vss vss vdd vdd _203_ sky130_fd_sc_hd__inv_2
Xhold43 mem_bottom_track_1.DFF_1_.Q vss vss vdd vdd net137 sky130_fd_sc_hd__dlygate4sd3_1
Xhold10 mem_top_track_16.DFF_0_.D vss vss vdd vdd net104 sky130_fd_sc_hd__dlygate4sd3_1
XFILLER_0_12_144 vss vss vdd vdd sky130_fd_sc_hd__fill_2
X_859_ mux_bottom_track_1.mux_l2_in_0_.TGATE_0_.out _187_ vss vss vdd vdd mux_bottom_track_1.mux_l3_in_0_.TGATE_0_.out
+ sky130_fd_sc_hd__ebufn_1
Xoutput77 net77 vss vss vdd vdd chany_top_out[3] sky130_fd_sc_hd__clkbuf_4
Xoutput55 net55 vss vss vdd vdd chanx_left_out[8] sky130_fd_sc_hd__clkbuf_4
Xoutput66 net66 vss vss vdd vdd chany_bottom_out[1] sky130_fd_sc_hd__clkbuf_4
X_713_ clknet_2_1__leaf_prog_clk net123 vss vss vdd vdd mem_bottom_track_9.DFF_2_.Q
+ sky130_fd_sc_hd__dfxtp_1
X_644_ _044_ vss vss vdd vdd _219_ sky130_fd_sc_hd__clkbuf_1
X_575_ mem_right_track_16.DFF_1_.Q vss vss vdd vdd _276_ sky130_fd_sc_hd__inv_2
XTAP_158 vss vdd sky130_fd_sc_hd__tapvpwrvgnd_1
XTAP_147 vss vdd sky130_fd_sc_hd__tapvpwrvgnd_1
XTAP_136 vss vdd sky130_fd_sc_hd__tapvpwrvgnd_1
XTAP_125 vss vdd sky130_fd_sc_hd__tapvpwrvgnd_1
XTAP_114 vss vdd sky130_fd_sc_hd__tapvpwrvgnd_1
XTAP_103 vss vdd sky130_fd_sc_hd__tapvpwrvgnd_1
X_360_ mem_right_track_8.DFF_1_.Q vss vss vdd vdd _172_ sky130_fd_sc_hd__inv_2
X_627_ mem_left_track_9.DFF_1_.Q vss vss vdd vdd _039_ sky130_fd_sc_hd__clkbuf_1
XFILLER_0_13_98 vss vss vdd vdd sky130_fd_sc_hd__fill_1
X_489_ net25 vss vss vdd vdd mux_left_track_9.INVTX1_6_.out sky130_fd_sc_hd__inv_2
X_558_ _016_ vss vss vdd vdd _283_ sky130_fd_sc_hd__clkbuf_1
XFILLER_0_1_111 vss vss vdd vdd sky130_fd_sc_hd__fill_1
X_343_ _067_ vss vss vdd vdd _177_ sky130_fd_sc_hd__clkbuf_1
X_412_ mem_top_track_8.DFF_2_.Q vss vss vdd vdd _090_ sky130_fd_sc_hd__clkbuf_1
XFILLER_0_24_97 vss vss vdd vdd sky130_fd_sc_hd__fill_1
XFILLER_0_4_85 vss vss vdd vdd sky130_fd_sc_hd__fill_1
X_892_ mux_left_track_1.INVTX1_1_.out _220_ vss vss vdd vdd mux_left_track_1.mux_l1_in_0_.TGATE_0_.out
+ sky130_fd_sc_hd__ebufn_1
X_961_ mux_bottom_track_17.mux_l2_in_2_.TGATE_0_.out _289_ vss vss vdd vdd mux_bottom_track_17.mux_l3_in_1_.TGATE_0_.out
+ sky130_fd_sc_hd__ebufn_1
XFILLER_0_35_85 vss vss vdd vdd sky130_fd_sc_hd__fill_2
XFILLER_0_28_139 vss vss vdd vdd sky130_fd_sc_hd__fill_1
XFILLER_0_19_42 vss vss vdd vdd sky130_fd_sc_hd__fill_2
X_326_ mem_bottom_track_1.DFF_1_.Q vss vss vdd vdd _061_ sky130_fd_sc_hd__clkbuf_1
XFILLER_0_19_139 vss vss vdd vdd sky130_fd_sc_hd__fill_1
X_851__87 vss vss vdd vdd net87 _851__87/LO sky130_fd_sc_hd__conb_1
X_944_ mux_right_track_16.mux_l3_in_0_.TGATE_0_.out _272_ vss vss vdd vdd mux_right_track_16.mux_l4_in_0_.TGATE_0_.out
+ sky130_fd_sc_hd__ebufn_2
X_875_ mux_bottom_track_9.mux_l3_in_0_.TGATE_0_.out _203_ vss vss vdd vdd mux_bottom_track_9.mux_l4_in_0_.TGATE_0_.out
+ sky130_fd_sc_hd__ebufn_2
Xhold22 mem_right_track_8.DFF_2_.Q vss vss vdd vdd net116 sky130_fd_sc_hd__dlygate4sd3_1
XFILLER_0_21_134 vss vss vdd vdd sky130_fd_sc_hd__decap_3
X_591_ mem_top_track_16.DFF_2_.Q vss vss vdd vdd _027_ sky130_fd_sc_hd__clkbuf_1
Xhold11 mem_bottom_track_17.DFF_3_.Q vss vss vdd vdd net105 sky130_fd_sc_hd__dlygate4sd3_1
X_660_ _050_ vss vss vdd vdd _215_ sky130_fd_sc_hd__clkbuf_1
Xhold33 mem_top_track_8.DFF_2_.Q vss vss vdd vdd net127 sky130_fd_sc_hd__dlygate4sd3_1
Xhold44 mem_top_track_16.DFF_1_.Q vss vss vdd vdd net138 sky130_fd_sc_hd__dlygate4sd3_1
X_789_ mux_bottom_track_17.INVTX1_5_.out _117_ vss vss vdd vdd mux_top_track_0.mux_l2_in_2_.TGATE_0_.out
+ sky130_fd_sc_hd__ebufn_1
XFILLER_0_16_10 vss vss vdd vdd sky130_fd_sc_hd__fill_1
X_858_ mux_bottom_track_1.mux_l2_in_2_.TGATE_0_.out _186_ vss vss vdd vdd mux_bottom_track_1.mux_l3_in_1_.TGATE_0_.out
+ sky130_fd_sc_hd__ebufn_1
X_927_ mux_bottom_track_9.INVTX1_3_.out _255_ vss vss vdd vdd mux_top_track_16.mux_l1_in_0_.TGATE_0_.out
+ sky130_fd_sc_hd__ebufn_1
XFILLER_0_8_139 vss vss vdd vdd sky130_fd_sc_hd__fill_1
Xoutput78 net78 vss vss vdd vdd chany_top_out[4] sky130_fd_sc_hd__clkbuf_4
XFILLER_0_32_3 vss vss vdd vdd sky130_fd_sc_hd__fill_1
Xoutput56 net56 vss vss vdd vdd chanx_right_out[0] sky130_fd_sc_hd__buf_2
X_712_ clknet_2_1__leaf_prog_clk net115 vss vss vdd vdd mem_bottom_track_17.DFF_0_.D
+ sky130_fd_sc_hd__dfxtp_1
Xoutput67 net67 vss vss vdd vdd chany_bottom_out[2] sky130_fd_sc_hd__clkbuf_4
XTAP_159 vss vdd sky130_fd_sc_hd__tapvpwrvgnd_1
XTAP_148 vss vdd sky130_fd_sc_hd__tapvpwrvgnd_1
XTAP_137 vss vdd sky130_fd_sc_hd__tapvpwrvgnd_1
XTAP_126 vss vdd sky130_fd_sc_hd__tapvpwrvgnd_1
XTAP_115 vss vdd sky130_fd_sc_hd__tapvpwrvgnd_1
X_574_ mem_right_track_16.DFF_2_.Q vss vss vdd vdd _273_ sky130_fd_sc_hd__inv_2
XTAP_104 vss vdd sky130_fd_sc_hd__tapvpwrvgnd_1
X_643_ mem_left_track_1.DFF_0_.Q vss vss vdd vdd _044_ sky130_fd_sc_hd__clkbuf_1
X_626_ mem_left_track_9.DFF_1_.Q vss vss vdd vdd _243_ sky130_fd_sc_hd__inv_2
X_488_ net26 vss vss vdd vdd mux_left_track_9.INVTX1_7_.out sky130_fd_sc_hd__inv_2
XFILLER_0_13_55 vss vss vdd vdd sky130_fd_sc_hd__fill_1
X_557_ mem_bottom_track_17.DFF_1_.Q vss vss vdd vdd _016_ sky130_fd_sc_hd__clkbuf_1
XFILLER_0_13_77 vss vss vdd vdd sky130_fd_sc_hd__fill_2
X_342_ mem_bottom_track_1.DFF_2_.Q vss vss vdd vdd _067_ sky130_fd_sc_hd__clkbuf_1
X_411_ _089_ vss vss vdd vdd _129_ sky130_fd_sc_hd__clkbuf_1
X_609_ mem_left_track_9.DFF_1_.Q vss vss vdd vdd _245_ sky130_fd_sc_hd__inv_2
XFILLER_0_24_65 vss vss vdd vdd sky130_fd_sc_hd__decap_3
XFILLER_0_24_43 vss vss vdd vdd sky130_fd_sc_hd__decap_4
X_891_ mux_bottom_track_9.INVTX1_2_.out _219_ vss vss vdd vdd mux_left_track_1.mux_l1_in_1_.TGATE_0_.out
+ sky130_fd_sc_hd__ebufn_1
X_960_ mux_bottom_track_17.mux_l3_in_0_.TGATE_0_.out _288_ vss vss vdd vdd mux_bottom_track_17.mux_l4_in_0_.TGATE_0_.out
+ sky130_fd_sc_hd__ebufn_2
X_325_ _060_ vss vss vdd vdd _184_ sky130_fd_sc_hd__clkbuf_1
X_943_ mux_bottom_track_9.INVTX1_1_.out _271_ vss vss vdd vdd mux_right_track_16.mux_l1_in_0_.TGATE_0_.out
+ sky130_fd_sc_hd__ebufn_1
X_874_ mux_bottom_track_9.INVTX1_1_.out _202_ vss vss vdd vdd mux_bottom_track_9.mux_l1_in_0_.TGATE_0_.out
+ sky130_fd_sc_hd__ebufn_2
XFILLER_0_1_65 vss vss vdd vdd sky130_fd_sc_hd__fill_1
Xhold23 mem_right_track_0.DFF_2_.Q vss vss vdd vdd net117 sky130_fd_sc_hd__dlygate4sd3_1
Xhold45 mem_top_track_0.DFF_1_.Q vss vss vdd vdd net139 sky130_fd_sc_hd__dlygate4sd3_1
Xhold34 mem_right_track_0.DFF_0_.Q vss vss vdd vdd net128 sky130_fd_sc_hd__dlygate4sd3_1
Xhold12 mem_top_track_0.DFF_3_.Q vss vss vdd vdd net106 sky130_fd_sc_hd__dlygate4sd3_1
XFILLER_0_15_132 vss vss vdd vdd sky130_fd_sc_hd__fill_2
X_590_ _026_ vss vss vdd vdd _254_ sky130_fd_sc_hd__clkbuf_1
X_788_ mux_bottom_track_17.INVTX1_7_.out _116_ vss vss vdd vdd mux_top_track_0.mux_l2_in_3_.TGATE_0_.out
+ sky130_fd_sc_hd__ebufn_1
Xclkbuf_2_3__f_prog_clk clknet_0_prog_clk vss vss vdd vdd clknet_2_3__leaf_prog_clk
+ sky130_fd_sc_hd__clkbuf_16
XFILLER_0_16_66 vss vss vdd vdd sky130_fd_sc_hd__fill_2
X_857_ mux_bottom_track_1.mux_l3_in_0_.TGATE_0_.out _185_ vss vss vdd vdd mux_bottom_track_1.mux_l4_in_0_.TGATE_0_.out
+ sky130_fd_sc_hd__ebufn_2
X_926_ mux_bottom_track_9.INVTX1_4_.out _254_ vss vss vdd vdd mux_top_track_16.mux_l2_in_0_.TGATE_0_.out
+ sky130_fd_sc_hd__ebufn_1
Xoutput46 net46 vss vss vdd vdd ccff_tail sky130_fd_sc_hd__clkbuf_4
Xoutput57 net57 vss vss vdd vdd chanx_right_out[1] sky130_fd_sc_hd__buf_2
Xoutput79 net79 vss vss vdd vdd chany_top_out[5] sky130_fd_sc_hd__clkbuf_4
XTAP_149 vss vdd sky130_fd_sc_hd__tapvpwrvgnd_1
XTAP_138 vss vdd sky130_fd_sc_hd__tapvpwrvgnd_1
XTAP_127 vss vdd sky130_fd_sc_hd__tapvpwrvgnd_1
XTAP_116 vss vdd sky130_fd_sc_hd__tapvpwrvgnd_1
X_711_ clknet_2_1__leaf_prog_clk net95 vss vss vdd vdd mem_bottom_track_1.DFF_0_.Q
+ sky130_fd_sc_hd__dfxtp_1
X_642_ mem_left_track_1.DFF_0_.Q vss vss vdd vdd _228_ sky130_fd_sc_hd__inv_2
X_573_ _021_ vss vss vdd vdd _264_ sky130_fd_sc_hd__clkbuf_1
XTAP_105 vss vdd sky130_fd_sc_hd__tapvpwrvgnd_1
Xoutput68 net68 vss vss vdd vdd chany_bottom_out[3] sky130_fd_sc_hd__clkbuf_4
X_909_ mux_bottom_track_1.INVTX1_2_.out _237_ vss vss vdd vdd mux_left_track_9.mux_l1_in_1_.TGATE_0_.out
+ sky130_fd_sc_hd__ebufn_1
X_625_ mem_left_track_9.DFF_2_.Q vss vss vdd vdd _240_ sky130_fd_sc_hd__inv_2
X_487_ mux_left_track_9.mux_l4_in_0_.TGATE_0_.out vss vss vdd vdd net51 sky130_fd_sc_hd__inv_2
XFILLER_0_13_67 vss vss vdd vdd sky130_fd_sc_hd__fill_2
XFILLER_0_13_34 vss vss vdd vdd sky130_fd_sc_hd__fill_1
X_556_ mem_bottom_track_17.DFF_1_.Q vss vss vdd vdd _291_ sky130_fd_sc_hd__inv_2
X_341_ _066_ vss vss vdd vdd _180_ sky130_fd_sc_hd__clkbuf_1
X_410_ mem_top_track_8.DFF_0_.Q vss vss vdd vdd _089_ sky130_fd_sc_hd__clkbuf_1
X_608_ mem_left_track_9.DFF_2_.Q vss vss vdd vdd _241_ sky130_fd_sc_hd__inv_2
X_539_ mem_bottom_track_17.DFF_0_.Q vss vss vdd vdd _009_ sky130_fd_sc_hd__clkbuf_1
XFILLER_0_24_88 vss vss vdd vdd sky130_fd_sc_hd__fill_1
XFILLER_0_4_10 vss vss vdd vdd sky130_fd_sc_hd__fill_1
X_324_ mem_bottom_track_1.DFF_0_.Q vss vss vdd vdd _060_ sky130_fd_sc_hd__clkbuf_1
X_890_ mux_left_track_1.mux_l1_in_1_.TGATE_0_.out _218_ vss vss vdd vdd mux_left_track_1.mux_l2_in_0_.TGATE_0_.out
+ sky130_fd_sc_hd__ebufn_1
XFILLER_0_27_141 vss vss vdd vdd sky130_fd_sc_hd__fill_1
XFILLER_0_19_119 vss vss vdd vdd sky130_fd_sc_hd__decap_4
XFILLER_0_19_66 vss vss vdd vdd sky130_fd_sc_hd__fill_1
X_942_ mux_left_track_17.INVTX1_2_.out _270_ vss vss vdd vdd mux_right_track_16.mux_l2_in_0_.TGATE_0_.out
+ sky130_fd_sc_hd__ebufn_1
Xclkbuf_2_2__f_prog_clk clknet_0_prog_clk vss vss vdd vdd clknet_2_2__leaf_prog_clk
+ sky130_fd_sc_hd__clkbuf_16
X_873_ mux_bottom_track_9.INVTX1_3_.out _201_ vss vss vdd vdd mux_bottom_track_9.mux_l1_in_1_.TGATE_0_.out
+ sky130_fd_sc_hd__ebufn_1
X_905__90 vss vss vdd vdd net90 _905__90/LO sky130_fd_sc_hd__conb_1
XFILLER_0_24_144 vss vss vdd vdd sky130_fd_sc_hd__fill_2
Xhold13 mem_left_track_17.DFF_0_.Q vss vss vdd vdd net107 sky130_fd_sc_hd__dlygate4sd3_1
Xhold46 mem_left_track_9.DFF_1_.Q vss vss vdd vdd net140 sky130_fd_sc_hd__dlygate4sd3_1
Xhold24 mem_top_track_0.DFF_2_.Q vss vss vdd vdd net118 sky130_fd_sc_hd__dlygate4sd3_1
Xhold35 mem_bottom_track_17.DFF_2_.Q vss vss vdd vdd net129 sky130_fd_sc_hd__dlygate4sd3_1
XFILLER_0_1_88 vss vss vdd vdd sky130_fd_sc_hd__fill_1
X_787_ mux_top_track_0.mux_l2_in_0_.TGATE_0_.out _115_ vss vss vdd vdd mux_top_track_0.mux_l3_in_0_.TGATE_0_.out
+ sky130_fd_sc_hd__ebufn_1
X_856_ mux_bottom_track_1.INVTX1_1_.out _184_ vss vss vdd vdd mux_bottom_track_1.mux_l1_in_0_.TGATE_0_.out
+ sky130_fd_sc_hd__ebufn_1
X_925_ mux_left_track_1.INVTX1_6_.out _253_ vss vss vdd vdd mux_top_track_16.mux_l2_in_1_.TGATE_0_.out
+ sky130_fd_sc_hd__ebufn_1
XFILLER_0_12_103 vss vss vdd vdd sky130_fd_sc_hd__fill_2
Xoutput47 net47 vss vss vdd vdd chanx_left_out[0] sky130_fd_sc_hd__clkbuf_4
Xoutput58 net58 vss vss vdd vdd chanx_right_out[2] sky130_fd_sc_hd__clkbuf_4
X_710_ clknet_2_2__leaf_prog_clk net111 vss vss vdd vdd mem_bottom_track_1.DFF_1_.Q
+ sky130_fd_sc_hd__dfxtp_2
X_572_ mem_bottom_track_1.DFF_0_.D vss vss vdd vdd _021_ sky130_fd_sc_hd__clkbuf_1
Xoutput69 net69 vss vss vdd vdd chany_bottom_out[4] sky130_fd_sc_hd__clkbuf_4
X_641_ _043_ vss vss vdd vdd _218_ sky130_fd_sc_hd__clkbuf_1
X_908_ mux_left_track_9.mux_l1_in_1_.TGATE_0_.out _236_ vss vss vdd vdd mux_left_track_9.mux_l2_in_0_.TGATE_0_.out
+ sky130_fd_sc_hd__ebufn_1
XFILLER_0_27_88 vss vss vdd vdd sky130_fd_sc_hd__decap_3
XTAP_139 vss vdd sky130_fd_sc_hd__tapvpwrvgnd_1
X_839_ mux_right_track_8.mux_l3_in_0_.TGATE_0_.out _167_ vss vss vdd vdd mux_right_track_8.mux_l4_in_0_.TGATE_0_.out
+ sky130_fd_sc_hd__ebufn_2
XTAP_128 vss vdd sky130_fd_sc_hd__tapvpwrvgnd_1
XTAP_117 vss vdd sky130_fd_sc_hd__tapvpwrvgnd_1
XTAP_106 vss vdd sky130_fd_sc_hd__tapvpwrvgnd_1
XPHY_0 vss vss vdd vdd sky130_fd_sc_hd__decap_3
XFILLER_0_4_144 vss vss vdd vdd sky130_fd_sc_hd__fill_2
XFILLER_0_7_65 vss vss vdd vdd sky130_fd_sc_hd__fill_2
XFILLER_0_7_3 vss vss vdd vdd sky130_fd_sc_hd__fill_1
X_624_ _038_ vss vss vdd vdd _230_ sky130_fd_sc_hd__clkbuf_1
X_486_ net41 vss vss vdd vdd mux_left_track_1.INVTX1_8_.out sky130_fd_sc_hd__inv_2
XFILLER_0_13_24 vss vss vdd vdd sky130_fd_sc_hd__fill_1
X_555_ _015_ vss vss vdd vdd _281_ sky130_fd_sc_hd__clkbuf_1
X_607_ mem_left_track_17.DFF_0_.D vss vss vdd vdd _239_ sky130_fd_sc_hd__inv_2
X_538_ mem_bottom_track_17.DFF_0_.Q vss vss vdd vdd _295_ sky130_fd_sc_hd__inv_2
X_340_ mem_bottom_track_1.DFF_1_.Q vss vss vdd vdd _066_ sky130_fd_sc_hd__clkbuf_1
X_469_ net31 vss vss vdd vdd mux_bottom_track_1.INVTX1_0_.out sky130_fd_sc_hd__inv_2
Xclkbuf_2_1__f_prog_clk clknet_0_prog_clk vss vss vdd vdd clknet_2_1__leaf_prog_clk
+ sky130_fd_sc_hd__clkbuf_16
XFILLER_0_35_77 vss vss vdd vdd sky130_fd_sc_hd__fill_1
XFILLER_0_19_109 vss vss vdd vdd sky130_fd_sc_hd__decap_3
X_923__91 vss vss vdd vdd net91 _923__91/LO sky130_fd_sc_hd__conb_1
X_941_ mux_left_track_1.INVTX1_6_.out _269_ vss vss vdd vdd mux_right_track_16.mux_l2_in_1_.TGATE_0_.out
+ sky130_fd_sc_hd__ebufn_1
XFILLER_0_34_9 vss vss vdd vdd sky130_fd_sc_hd__fill_1
XFILLER_0_21_68 vss vss vdd vdd sky130_fd_sc_hd__fill_1
XFILLER_0_21_35 vss vss vdd vdd sky130_fd_sc_hd__fill_2
X_872_ mux_bottom_track_9.mux_l1_in_1_.TGATE_0_.out _200_ vss vss vdd vdd mux_bottom_track_9.mux_l2_in_0_.TGATE_0_.out
+ sky130_fd_sc_hd__ebufn_1
XFILLER_0_30_126 vss vss vdd vdd sky130_fd_sc_hd__fill_1
Xhold47 mem_right_track_16.DFF_1_.Q vss vss vdd vdd net141 sky130_fd_sc_hd__dlygate4sd3_1
Xhold14 mem_left_track_1.DFF_3_.Q vss vss vdd vdd net108 sky130_fd_sc_hd__dlygate4sd3_1
Xhold36 mem_bottom_track_9.DFF_0_.Q vss vss vdd vdd net130 sky130_fd_sc_hd__dlygate4sd3_1
Xhold25 mem_bottom_track_1.DFF_2_.Q vss vss vdd vdd net119 sky130_fd_sc_hd__dlygate4sd3_1
X_855_ mux_bottom_track_1.INVTX1_3_.out _183_ vss vss vdd vdd mux_bottom_track_1.mux_l1_in_1_.TGATE_0_.out
+ sky130_fd_sc_hd__ebufn_1
X_786_ mux_top_track_0.mux_l2_in_2_.TGATE_0_.out _114_ vss vss vdd vdd mux_top_track_0.mux_l3_in_1_.TGATE_0_.out
+ sky130_fd_sc_hd__ebufn_1
X_924_ mux_bottom_track_1.INVTX1_7_.out _252_ vss vss vdd vdd mux_top_track_16.mux_l2_in_2_.TGATE_0_.out
+ sky130_fd_sc_hd__ebufn_1
XFILLER_0_16_46 vss vss vdd vdd sky130_fd_sc_hd__fill_1
XFILLER_0_32_23 vss vss vdd vdd sky130_fd_sc_hd__fill_2
Xoutput48 net48 vss vss vdd vdd chanx_left_out[1] sky130_fd_sc_hd__clkbuf_4
Xoutput59 net59 vss vss vdd vdd chanx_right_out[3] sky130_fd_sc_hd__clkbuf_4
X_571_ _020_ vss vss vdd vdd _269_ sky130_fd_sc_hd__clkbuf_1
X_640_ mem_left_track_1.DFF_1_.Q vss vss vdd vdd _043_ sky130_fd_sc_hd__clkbuf_1
X_907_ mux_left_track_9.INVTX1_5_.out _235_ vss vss vdd vdd mux_left_track_9.mux_l2_in_1_.TGATE_0_.out
+ sky130_fd_sc_hd__ebufn_1
XTAP_129 vss vdd sky130_fd_sc_hd__tapvpwrvgnd_1
X_838_ mux_left_track_1.INVTX1_1_.out _166_ vss vss vdd vdd mux_right_track_8.mux_l1_in_0_.TGATE_0_.out
+ sky130_fd_sc_hd__ebufn_1
X_769_ net31 vss vss vdd vdd net66 sky130_fd_sc_hd__buf_1
XTAP_118 vss vdd sky130_fd_sc_hd__tapvpwrvgnd_1
XTAP_107 vss vdd sky130_fd_sc_hd__tapvpwrvgnd_1
XPHY_1 vss vss vdd vdd sky130_fd_sc_hd__decap_3
X_485_ net34 vss vss vdd vdd mux_left_track_1.INVTX1_1_.out sky130_fd_sc_hd__inv_2
X_623_ mem_left_track_17.DFF_0_.D vss vss vdd vdd _038_ sky130_fd_sc_hd__clkbuf_1
X_554_ mem_bottom_track_17.DFF_2_.Q vss vss vdd vdd _015_ sky130_fd_sc_hd__clkbuf_1
Xclkbuf_2_0__f_prog_clk clknet_0_prog_clk vss vss vdd vdd clknet_2_0__leaf_prog_clk
+ sky130_fd_sc_hd__clkbuf_16
X_399_ mem_right_track_0.DFF_1_.Q vss vss vdd vdd _086_ sky130_fd_sc_hd__clkbuf_1
X_468_ net35 vss vss vdd vdd mux_bottom_track_1.INVTX1_1_.out sky130_fd_sc_hd__inv_2
X_537_ mem_bottom_track_17.DFF_1_.Q vss vss vdd vdd _294_ sky130_fd_sc_hd__inv_2
X_606_ _032_ vss vss vdd vdd _251_ sky130_fd_sc_hd__clkbuf_1
XFILLER_0_24_113 vss vss vdd vdd sky130_fd_sc_hd__decap_6
X_871_ mux_bottom_track_9.INVTX1_5_.out _199_ vss vss vdd vdd mux_bottom_track_9.mux_l2_in_1_.TGATE_0_.out
+ sky130_fd_sc_hd__ebufn_1
X_940_ mux_bottom_track_9.INVTX1_6_.out _268_ vss vss vdd vdd mux_right_track_16.mux_l2_in_2_.TGATE_0_.out
+ sky130_fd_sc_hd__ebufn_1
XFILLER_0_1_13 vss vss vdd vdd sky130_fd_sc_hd__fill_1
Xhold26 mem_left_track_9.DFF_0_.Q vss vss vdd vdd net120 sky130_fd_sc_hd__dlygate4sd3_1
Xhold37 mem_right_track_0.DFF_1_.Q vss vss vdd vdd net131 sky130_fd_sc_hd__dlygate4sd3_1
XFILLER_0_21_116 vss vss vdd vdd sky130_fd_sc_hd__fill_2
X_854_ mux_bottom_track_1.mux_l1_in_1_.TGATE_0_.out _182_ vss vss vdd vdd mux_bottom_track_1.mux_l2_in_0_.TGATE_0_.out
+ sky130_fd_sc_hd__ebufn_2
X_923_ net91 _251_ vss vss vdd vdd mux_top_track_16.mux_l2_in_3_.TGATE_0_.out sky130_fd_sc_hd__ebufn_1
Xhold15 mem_left_track_1.DFF_0_.Q vss vss vdd vdd net109 sky130_fd_sc_hd__dlygate4sd3_1
X_785_ mux_top_track_0.mux_l3_in_0_.TGATE_0_.out _113_ vss vss vdd vdd mux_top_track_0.mux_l4_in_0_.TGATE_0_.out
+ sky130_fd_sc_hd__ebufn_2
Xoutput49 net49 vss vss vdd vdd chanx_left_out[2] sky130_fd_sc_hd__clkbuf_4
XFILLER_0_7_121 vss vss vdd vdd sky130_fd_sc_hd__fill_2