*SPEF "ieee 1481-1999"
*DESIGN "cbx_1__0_"
*DATE "11:11:11 Fri 11 11, 1111"
*VENDOR "OpenRCX"
*PROGRAM "Parallel Extraction"
*VERSION "1.0"
*DESIGN_FLOW "NAME_SCOPE LOCAL" "PIN_CAP NONE"
*DIVIDER /
*DELIMITER :
*BUS_DELIMITER []
*T_UNIT 1 NS
*C_UNIT 1 PF
*R_UNIT 1 OHM
*L_UNIT 1 HENRY

*NAME_MAP
*1 bottom_grid_top_width_0_height_0_subtile_0__pin_outpad_0_
*2 ccff_head
*3 ccff_tail
*4 chanx_left_in[0]
*5 chanx_left_in[1]
*6 chanx_left_in[2]
*7 chanx_left_in[3]
*8 chanx_left_in[4]
*9 chanx_left_in[5]
*10 chanx_left_in[6]
*11 chanx_left_in[7]
*12 chanx_left_in[8]
*13 chanx_left_out[0]
*14 chanx_left_out[1]
*15 chanx_left_out[2]
*16 chanx_left_out[3]
*17 chanx_left_out[4]
*18 chanx_left_out[5]
*19 chanx_left_out[6]
*20 chanx_left_out[7]
*21 chanx_left_out[8]
*22 chanx_right_in[0]
*23 chanx_right_in[1]
*24 chanx_right_in[2]
*25 chanx_right_in[3]
*26 chanx_right_in[4]
*27 chanx_right_in[5]
*28 chanx_right_in[6]
*29 chanx_right_in[7]
*30 chanx_right_in[8]
*31 chanx_right_out[0]
*32 chanx_right_out[1]
*33 chanx_right_out[2]
*34 chanx_right_out[3]
*35 chanx_right_out[4]
*36 chanx_right_out[5]
*37 chanx_right_out[6]
*38 chanx_right_out[7]
*39 chanx_right_out[8]
*40 prog_clk
*41 top_grid_bottom_width_0_height_0_subtile_0__pin_I_2_
*42 top_grid_bottom_width_0_height_0_subtile_0__pin_I_6_
*45 _000_
*46 _001_
*47 _002_
*48 _003_
*49 _004_
*50 _005_
*51 _006_
*52 _007_
*53 _008_
*54 _009_
*55 _010_
*56 _011_
*57 _012_
*58 _013_
*59 _014_
*60 _015_
*61 _016_
*62 _017_
*63 _018_
*64 _019_
*65 _020_
*66 _021_
*67 _022_
*68 _023_
*69 _024_
*70 _025_
*71 _026_
*72 _027_
*73 _028_
*74 _029_
*75 _030_
*76 _031_
*77 _032_
*78 _033_
*79 _034_
*80 _035_
*81 _036_
*82 _037_
*83 _038_
*84 _039_
*85 _040_
*86 _041_
*87 clknet_0_prog_clk
*88 clknet_1_0__leaf_prog_clk
*89 clknet_1_1__leaf_prog_clk
*90 mem_bottom_ipin_0\.DFF_0_\.Q
*91 mem_bottom_ipin_0\.DFF_1_\.Q
*92 mem_bottom_ipin_0\.DFF_2_\.Q
*93 mem_bottom_ipin_1\.DFF_0_\.Q
*94 mem_bottom_ipin_1\.DFF_1_\.Q
*95 mem_top_ipin_0\.DFF_0_\.Q
*96 mem_top_ipin_0\.DFF_1_\.Q
*97 mux_bottom_ipin_0\.INVTX1_0_\.out
*98 mux_bottom_ipin_0\.INVTX1_1_\.out
*99 mux_bottom_ipin_0\.INVTX1_2_\.out
*100 mux_bottom_ipin_0\.INVTX1_3_\.out
*101 mux_bottom_ipin_0\.INVTX1_4_\.out
*102 mux_bottom_ipin_0\.INVTX1_5_\.out
*103 mux_bottom_ipin_0\.mux_l1_in_0_\.TGATE_0_\.out
*104 mux_bottom_ipin_0\.mux_l1_in_1_\.TGATE_0_\.out
*105 mux_bottom_ipin_0\.mux_l1_in_2_\.TGATE_0_\.out
*106 mux_bottom_ipin_0\.mux_l2_in_0_\.TGATE_0_\.out
*107 mux_bottom_ipin_0\.mux_l2_in_1_\.TGATE_0_\.out
*108 mux_bottom_ipin_0\.mux_l3_in_0_\.TGATE_0_\.out
*109 mux_bottom_ipin_1\.INVTX1_0_\.out
*110 mux_bottom_ipin_1\.INVTX1_1_\.out
*111 mux_bottom_ipin_1\.mux_l1_in_0_\.TGATE_0_\.out
*112 mux_bottom_ipin_1\.mux_l2_in_0_\.TGATE_0_\.out
*113 mux_top_ipin_0\.INVTX1_2_\.out
*114 mux_top_ipin_0\.INVTX1_3_\.out
*115 mux_top_ipin_0\.INVTX1_4_\.out
*116 mux_top_ipin_0\.INVTX1_5_\.out
*117 mux_top_ipin_0\.mux_l1_in_0_\.TGATE_0_\.out
*118 mux_top_ipin_0\.mux_l1_in_1_\.TGATE_0_\.out
*119 mux_top_ipin_0\.mux_l1_in_2_\.TGATE_0_\.out
*120 mux_top_ipin_0\.mux_l2_in_0_\.TGATE_0_\.out
*121 mux_top_ipin_0\.mux_l2_in_1_\.TGATE_0_\.out
*122 mux_top_ipin_0\.mux_l3_in_0_\.TGATE_0_\.out
*123 net1
*124 net10
*125 net11
*126 net12
*127 net13
*128 net14
*129 net15
*130 net16
*131 net17
*132 net18
*133 net19
*134 net2
*135 net20
*136 net21
*137 net22
*138 net23
*139 net24
*140 net25
*141 net26
*142 net27
*143 net28
*144 net29
*145 net3
*146 net30
*147 net31
*148 net32
*149 net33
*150 net34
*151 net35
*152 net36
*153 net37
*154 net38
*155 net39
*156 net4
*157 net40
*158 net41
*159 net42
*160 net43
*161 net44
*162 net45
*163 net46
*164 net47
*165 net48
*166 net49
*167 net5
*168 net50
*169 net51
*170 net6
*171 net7
*172 net8
*173 net9
*174 FILLER_0_0_15
*175 FILLER_0_0_19
*176 FILLER_0_0_26
*177 FILLER_0_0_29
*178 FILLER_0_0_37
*179 FILLER_0_0_41
*180 FILLER_0_0_48
*181 FILLER_0_0_63
*182 FILLER_0_0_70
*183 FILLER_0_0_85
*184 FILLER_0_0_95
*185 FILLER_0_10_102
*186 FILLER_0_10_15
*187 FILLER_0_10_27
*188 FILLER_0_10_29
*189 FILLER_0_10_3
*190 FILLER_0_10_41
*191 FILLER_0_10_62
*192 FILLER_0_10_67
*193 FILLER_0_10_74
*194 FILLER_0_10_82
*195 FILLER_0_11_101
*196 FILLER_0_11_18
*197 FILLER_0_11_30
*198 FILLER_0_11_38
*199 FILLER_0_11_43
*200 FILLER_0_11_47
*201 FILLER_0_11_57
*202 FILLER_0_11_6
*203 FILLER_0_11_66
*204 FILLER_0_11_84
*205 FILLER_0_12_12
*206 FILLER_0_12_27
*207 FILLER_0_12_29
*208 FILLER_0_12_38
*209 FILLER_0_12_50
*210 FILLER_0_12_61
*211 FILLER_0_12_65
*212 FILLER_0_12_72
*213 FILLER_0_13_15
*214 FILLER_0_13_19
*215 FILLER_0_13_26
*216 FILLER_0_13_29
*217 FILLER_0_13_37
*218 FILLER_0_13_41
*219 FILLER_0_13_48
*220 FILLER_0_13_63
*221 FILLER_0_13_70
*222 FILLER_0_13_74
*223 FILLER_0_13_85
*224 FILLER_0_13_92
*225 FILLER_0_1_102
*226 FILLER_0_1_16
*227 FILLER_0_1_28
*228 FILLER_0_1_40
*229 FILLER_0_1_6
*230 FILLER_0_1_66
*231 FILLER_0_1_88
*232 FILLER_0_2_101
*233 FILLER_0_2_15
*234 FILLER_0_2_23
*235 FILLER_0_2_27
*236 FILLER_0_2_29
*237 FILLER_0_2_3
*238 FILLER_0_3_102
*239 FILLER_0_3_18
*240 FILLER_0_3_30
*241 FILLER_0_3_42
*242 FILLER_0_3_50
*243 FILLER_0_3_55
*244 FILLER_0_3_57
*245 FILLER_0_3_6
*246 FILLER_0_3_67
*247 FILLER_0_4_101
*248 FILLER_0_4_15
*249 FILLER_0_4_21
*250 FILLER_0_4_3
*251 FILLER_0_4_37
*252 FILLER_0_4_46
*253 FILLER_0_4_54
*254 FILLER_0_4_83
*255 FILLER_0_5_10
*256 FILLER_0_5_47
*257 FILLER_0_5_57
*258 FILLER_0_5_6
*259 FILLER_0_5_64
*260 FILLER_0_5_93
*261 FILLER_0_6_102
*262 FILLER_0_6_15
*263 FILLER_0_6_23
*264 FILLER_0_6_29
*265 FILLER_0_6_3
*266 FILLER_0_6_52
*267 FILLER_0_6_78
*268 FILLER_0_6_83
*269 FILLER_0_7_12
*270 FILLER_0_7_16
*271 FILLER_0_7_28
*272 FILLER_0_7_54
*273 FILLER_0_7_57
*274 FILLER_0_7_6
*275 FILLER_0_8_15
*276 FILLER_0_8_27
*277 FILLER_0_8_3
*278 FILLER_0_8_56
*279 FILLER_0_8_88
*280 FILLER_0_9_18
*281 FILLER_0_9_30
*282 FILLER_0_9_36
*283 FILLER_0_9_57
*284 FILLER_0_9_6
*285 FILLER_0_9_77
*286 FILLER_0_9_89
*287 PHY_0
*288 PHY_1
*289 PHY_10
*290 PHY_11
*291 PHY_12
*292 PHY_13
*293 PHY_14
*294 PHY_15
*295 PHY_16
*296 PHY_17
*297 PHY_18
*298 PHY_19
*299 PHY_2
*300 PHY_20
*301 PHY_21
*302 PHY_22
*303 PHY_23
*304 PHY_24
*305 PHY_25
*306 PHY_26
*307 PHY_27
*308 PHY_3
*309 PHY_4
*310 PHY_5
*311 PHY_6
*312 PHY_7
*313 PHY_8
*314 PHY_9
*315 TAP_28
*316 TAP_29
*317 TAP_30
*318 TAP_31
*319 TAP_32
*320 TAP_33
*321 TAP_34
*322 TAP_35
*323 TAP_36
*324 TAP_37
*325 TAP_38
*326 TAP_39
*327 TAP_40
*328 TAP_41
*329 TAP_42
*330 TAP_43
*331 TAP_44
*332 TAP_45
*333 TAP_46
*334 TAP_47
*335 TAP_48
*336 TAP_49
*337 TAP_50
*338 TAP_51
*339 _045_
*340 _046_
*341 _047_
*342 _048_
*343 _049_
*344 _050_
*345 _051_
*346 _052_
*347 _053_
*348 _054_
*349 _055_
*350 _056_
*351 _057_
*352 _058_
*353 _059_
*354 _060_
*355 _061_
*356 _062_
*357 _063_
*358 _064_
*359 _065_
*360 _066_
*361 _067_
*362 _068_
*363 _069_
*364 _070_
*365 _071_
*366 _072_
*367 _073_
*368 _074_
*369 _075_
*370 _076_
*371 _077_
*372 _078_
*373 _079_
*374 _080_
*375 _081_
*376 _082_
*377 _083_
*378 _084_
*379 _085_
*380 _086_
*381 _087_
*382 _088_
*383 _089_
*384 _090_
*385 _091_
*386 _092_
*387 _093_
*388 _094_
*389 _095_
*390 _096_
*391 _097_
*392 _098_
*393 _099_
*394 _100_
*395 _101_
*396 _102_
*397 _103_
*398 _104_
*399 _105_
*400 _106_
*401 _107_
*402 _108_
*403 _109_
*404 _113_
*405 _114_
*406 _115_
*407 _116_
*408 _117_
*409 _118_
*410 _119_
*411 _120_
*412 _121_
*413 _122_
*414 _123_
*415 _124_
*416 _125_
*417 _126_
*418 _127_
*419 _128_
*420 _129_
*421 _130_
*422 _131_
*423 _131__42
*424 _132_
*425 _133_
*426 _134_
*427 _135_
*428 _136_
*429 _137_
*430 _138_
*431 _139_
*432 _140_
*433 _141_
*434 _142_
*435 _143_
*436 _144_
*437 _144__43
*438 _145_
*439 _146_
*440 _147_
*441 _148_
*442 _149_
*443 _150_
*444 _151_
*445 _152_
*446 _153_
*447 _154_
*448 _155_
*449 _155__44
*450 _156_
*451 _157_
*452 _158_
*453 clkbuf_0_prog_clk
*454 clkbuf_1_0__f_prog_clk
*455 clkbuf_1_1__f_prog_clk
*456 hold1
*457 hold2
*458 hold3
*459 hold4
*460 hold5
*461 hold6
*462 hold7
*463 input1
*464 input10
*465 input11
*466 input12
*467 input13
*468 input14
*469 input15
*470 input16
*471 input17
*472 input18
*473 input19
*474 input2
*475 input3
*476 input4
*477 input5
*478 input6
*479 input7
*480 input8
*481 input9
*482 output20
*483 output21
*484 output22
*485 output23
*486 output24
*487 output25
*488 output26
*489 output27
*490 output28
*491 output29
*492 output30
*493 output31
*494 output32
*495 output33
*496 output34
*497 output35
*498 output36
*499 output37
*500 output38
*501 output39
*502 output40
*503 output41

*PORTS
bottom_grid_top_width_0_height_0_subtile_0__pin_outpad_0_ O
ccff_head I
ccff_tail O
chanx_left_in[0] I
chanx_left_in[1] I
chanx_left_in[2] I
chanx_left_in[3] I
chanx_left_in[4] I
chanx_left_in[5] I
chanx_left_in[6] I
chanx_left_in[7] I
chanx_left_in[8] I
chanx_left_out[0] O
chanx_left_out[1] O
chanx_left_out[2] O
chanx_left_out[3] O
chanx_left_out[4] O
chanx_left_out[5] O
chanx_left_out[6] O
chanx_left_out[7] O
chanx_left_out[8] O
chanx_right_in[0] I
chanx_right_in[1] I
chanx_right_in[2] I
chanx_right_in[3] I
chanx_right_in[4] I
chanx_right_in[5] I
chanx_right_in[6] I
chanx_right_in[7] I
chanx_right_in[8] I
chanx_right_out[0] O
chanx_right_out[1] O
chanx_right_out[2] O
chanx_right_out[3] O
chanx_right_out[4] O
chanx_right_out[5] O
chanx_right_out[6] O
chanx_right_out[7] O
chanx_right_out[8] O
prog_clk I
top_grid_bottom_width_0_height_0_subtile_0__pin_I_2_ O
top_grid_bottom_width_0_height_0_subtile_0__pin_I_6_ O

*D_NET *1 0.00119421
*CONN
*P bottom_grid_top_width_0_height_0_subtile_0__pin_outpad_0_ O
*I *482:X O *D sky130_fd_sc_hd__clkbuf_4
*CAP
1 bottom_grid_top_width_0_height_0_subtile_0__pin_outpad_0_ 0.000414245
2 *482:X 0.000414245
3 bottom_grid_top_width_0_height_0_subtile_0__pin_outpad_0_ *466:A 0.000365721
*RES
1 *482:X bottom_grid_top_width_0_height_0_subtile_0__pin_outpad_0_ 22.05 
*END

*D_NET *2 0.00237894
*CONN
*P ccff_head I
*I *463:A I *D sky130_fd_sc_hd__clkbuf_1
*CAP
1 ccff_head 0.00098569
2 *463:A 0.00098569
3 *463:A ccff_tail 6.08008e-05
4 *463:A chanx_left_out[8] 0.000270653
5 *463:A top_grid_bottom_width_0_height_0_subtile_0__pin_I_2_ 0
6 *463:A *473:A 0
7 *463:A *491:A 7.2305e-05
8 *463:A *133:16 3.79877e-06
*RES
1 ccff_head *463:A 26.0399 
*END

*D_NET *3 0.00308222
*CONN
*P ccff_tail O
*I *483:X O *D sky130_fd_sc_hd__clkbuf_4
*CAP
1 ccff_tail 0.00124006
2 *483:X 0.00124006
3 ccff_tail chanx_left_out[8] 0
4 ccff_tail top_grid_bottom_width_0_height_0_subtile_0__pin_I_2_ 0
5 ccff_tail top_grid_bottom_width_0_height_0_subtile_0__pin_I_6_ 1.74352e-05
6 ccff_tail *492:A 4.23086e-05
7 ccff_tail *502:A 0.00040319
8 ccff_tail *133:16 7.83587e-05
9 *463:A ccff_tail 6.08008e-05
*RES
1 *483:X ccff_tail 32.399 
*END

*D_NET *4 0.000764136
*CONN
*P chanx_left_in[0] I
*I *474:A I *D sky130_fd_sc_hd__buf_1
*CAP
1 chanx_left_in[0] 0.000382068
2 *474:A 0.000382068
3 *474:A *475:A 0
4 *474:A *493:A 0
5 *474:A *40:17 0
6 *474:A *173:12 0
*RES
1 chanx_left_in[0] *474:A 19.8412 
*END

*D_NET *5 0.00068025
*CONN
*P chanx_left_in[1] I
*I *475:A I *D sky130_fd_sc_hd__buf_1
*CAP
1 chanx_left_in[1] 0.000340125
2 *475:A 0.000340125
3 *475:A *476:A 0
4 *475:A *156:12 0
5 *474:A *475:A 0
*RES
1 chanx_left_in[1] *475:A 22.0661 
*END

*D_NET *6 0.00068025
*CONN
*P chanx_left_in[2] I
*I *476:A I *D sky130_fd_sc_hd__buf_1
*CAP
1 chanx_left_in[2] 0.000340125
2 *476:A 0.000340125
3 *476:A *477:A 0
4 *476:A *137:12 0
5 *476:A *156:12 0
6 *475:A *476:A 0
*RES
1 chanx_left_in[2] *476:A 22.0661 
*END

*D_NET *7 0.000689314
*CONN
*P chanx_left_in[3] I
*I *477:A I *D sky130_fd_sc_hd__clkbuf_1
*CAP
1 chanx_left_in[3] 0.000344657
2 *477:A 0.000344657
3 *477:A *418:A 0
4 *477:A *478:A 0
5 *477:A *137:12 0
6 *476:A *477:A 0
*RES
1 chanx_left_in[3] *477:A 22.0661 
*END

*D_NET *8 0.000676621
*CONN
*P chanx_left_in[4] I
*I *478:A I *D sky130_fd_sc_hd__buf_1
*CAP
1 chanx_left_in[4] 0.000338311
2 *478:A 0.000338311
3 *478:A *479:A 0
4 *478:A *484:A 0
5 *477:A *478:A 0
*RES
1 chanx_left_in[4] *478:A 20.2479 
*END

*D_NET *9 0.000708474
*CONN
*P chanx_left_in[5] I
*I *479:A I *D sky130_fd_sc_hd__clkbuf_1
*CAP
1 chanx_left_in[5] 0.000354237
2 *479:A 0.000354237
3 *479:A *480:A 0
4 *479:A *484:A 0
5 *478:A *479:A 0
*RES
1 chanx_left_in[5] *479:A 19.2936 
*END

*D_NET *10 0.000511105
*CONN
*P chanx_left_in[6] I
*I *480:A I *D sky130_fd_sc_hd__buf_1
*CAP
1 chanx_left_in[6] 0.000255051
2 *480:A 0.000255051
3 *480:A chanx_left_out[0] 0
4 *480:A *481:A 1.00298e-06
5 *480:A *484:A 0
6 *479:A *480:A 0
*RES
1 chanx_left_in[6] *480:A 20.2447 
*END

*D_NET *11 0.00157868
*CONN
*P chanx_left_in[7] I
*I *481:A I *D sky130_fd_sc_hd__clkbuf_1
*CAP
1 chanx_left_in[7] 0.000705234
2 *481:A 0.000705234
3 *481:A chanx_left_out[1] 4.32957e-05
4 *481:A *464:A 0
5 *481:A *484:A 0.000123912
6 *481:A *485:A 0
7 *480:A *481:A 1.00298e-06
*RES
1 chanx_left_in[7] *481:A 22.3081 
*END

*D_NET *12 0.00333527
*CONN
*P chanx_left_in[8] I
*I *464:A I *D sky130_fd_sc_hd__buf_1
*CAP
1 chanx_left_in[8] 0.00127577
2 *464:A 0.00127577
3 *464:A chanx_left_out[1] 0
4 *464:A chanx_left_out[2] 0.000488771
5 *464:A *485:A 4.56859e-05
6 *464:A *486:A 0
7 *464:A *124:8 0.000249279
8 *481:A *464:A 0
*RES
1 chanx_left_in[8] *464:A 33.6181 
*END

*D_NET *13 0.00106488
*CONN
*P chanx_left_out[0] O
*I *484:X O *D sky130_fd_sc_hd__clkbuf_4
*CAP
1 chanx_left_out[0] 0.00053244
2 *484:X 0.00053244
3 *480:A chanx_left_out[0] 0
*RES
1 *484:X chanx_left_out[0] 23.5857 
*END

*D_NET *14 0.000876757
*CONN
*P chanx_left_out[1] O
*I *485:X O *D sky130_fd_sc_hd__clkbuf_4
*CAP
1 chanx_left_out[1] 0.000416731
2 *485:X 0.000416731
3 *464:A chanx_left_out[1] 0
4 *481:A chanx_left_out[1] 4.32957e-05
*RES
1 *485:X chanx_left_out[1] 21.5321 
*END

*D_NET *15 0.00107818
*CONN
*P chanx_left_out[2] O
*I *486:X O *D sky130_fd_sc_hd__clkbuf_4
*CAP
1 chanx_left_out[2] 0.000294706
2 *486:X 0.000294706
3 *464:A chanx_left_out[2] 0.000488771
*RES
1 *486:X chanx_left_out[2] 21.5321 
*END

*D_NET *16 0.000812907
*CONN
*P chanx_left_out[3] O
*I *487:X O *D sky130_fd_sc_hd__clkbuf_4
*CAP
1 chanx_left_out[3] 0.000406454
2 *487:X 0.000406454
*RES
1 *487:X chanx_left_out[3] 21.5321 
*END

*D_NET *17 0.000822725
*CONN
*P chanx_left_out[4] O
*I *488:X O *D sky130_fd_sc_hd__clkbuf_4
*CAP
1 chanx_left_out[4] 0.000411363
2 *488:X 0.000411363
*RES
1 *488:X chanx_left_out[4] 21.5321 
*END

*D_NET *18 0.00103052
*CONN
*P chanx_left_out[5] O
*I *489:X O *D sky130_fd_sc_hd__clkbuf_4
*CAP
1 chanx_left_out[5] 0.000515259
2 *489:X 0.000515259
3 chanx_left_out[5] chanx_left_out[6] 0
*RES
1 *489:X chanx_left_out[5] 24.8893 
*END

*D_NET *19 0.00082122
*CONN
*P chanx_left_out[6] O
*I *490:X O *D sky130_fd_sc_hd__clkbuf_4
*CAP
1 chanx_left_out[6] 0.00041061
2 *490:X 0.00041061
3 chanx_left_out[5] chanx_left_out[6] 0
*RES
1 *490:X chanx_left_out[6] 21.5321 
*END

*D_NET *20 0.000812907
*CONN
*P chanx_left_out[7] O
*I *491:X O *D sky130_fd_sc_hd__clkbuf_4
*CAP
1 chanx_left_out[7] 0.000406454
2 *491:X 0.000406454
*RES
1 *491:X chanx_left_out[7] 21.5321 
*END

*D_NET *21 0.00125648
*CONN
*P chanx_left_out[8] O
*I *492:X O *D sky130_fd_sc_hd__clkbuf_4
*CAP
1 chanx_left_out[8] 0.00047021
2 *492:X 0.00047021
3 chanx_left_out[8] *398:D 8.25843e-06
4 chanx_left_out[8] *491:A 6.05161e-06
5 chanx_left_out[8] *133:16 3.10914e-05
6 ccff_tail chanx_left_out[8] 0
7 *463:A chanx_left_out[8] 0.000270653
*RES
1 *492:X chanx_left_out[8] 23.5857 
*END

*D_NET *22 0.00330046
*CONN
*P chanx_right_in[0] I
*I *465:A I *D sky130_fd_sc_hd__buf_1
*CAP
1 chanx_right_in[0] 0.00157402
2 *465:A 0.00157402
3 *465:A chanx_right_out[6] 0
4 *465:A chanx_right_out[7] 0
5 *465:A *344:A 0
6 *465:A *389:A 0
7 *465:A *466:A 0
8 *465:A *95:32 0
9 *465:A *96:12 5.80706e-06
10 *465:A *154:30 0.000146618
*RES
1 chanx_right_in[0] *465:A 32.2683 
*END

*D_NET *23 0.00237889
*CONN
*P chanx_right_in[1] I
*I *466:A I *D sky130_fd_sc_hd__buf_1
*CAP
1 chanx_right_in[1] 0.000675756
2 *466:A 0.000675756
3 *466:A chanx_right_out[8] 7.3237e-05
4 *466:A *360:A 5.65955e-05
5 *466:A *387:A 0.00011297
6 *466:A *442:TE_B 0.000319748
7 *466:A *467:A 0
8 *466:A *501:A 0
9 *466:A *135:20 9.91086e-05
10 bottom_grid_top_width_0_height_0_subtile_0__pin_outpad_0_ *466:A 0.000365721
11 *465:A *466:A 0
*RES
1 chanx_right_in[1] *466:A 28.8582 
*END

*D_NET *24 0.00526625
*CONN
*P chanx_right_in[2] I
*I *467:A I *D sky130_fd_sc_hd__buf_1
*CAP
1 chanx_right_in[2] 0.0020937
2 *467:A 0.0020937
3 *467:A *387:A 0.000705735
4 *467:A *389:A 7.93495e-05
5 *467:A *468:A 0
6 *467:A *40:17 0.000274668
7 *467:A *154:30 1.90936e-05
8 *466:A *467:A 0
*RES
1 chanx_right_in[2] *467:A 28.0017 
*END

*D_NET *25 0.00607752
*CONN
*P chanx_right_in[3] I
*I *468:A I *D sky130_fd_sc_hd__clkbuf_1
*CAP
1 chanx_right_in[3] 0.00190268
2 *468:A 0.00190268
3 *468:A *345:A 9.25275e-05
4 *468:A *354:A 6.56534e-05
5 *468:A *390:A 3.93247e-05
6 *468:A *400:D 0.000612673
7 *468:A *438:A 6.35491e-05
8 *468:A *438:TE_B 1.81709e-05
9 *468:A *440:TE_B 5.49489e-05
10 *468:A *446:A 9.60875e-05
11 *468:A *446:TE_B 0.000154124
12 *468:A *469:A 0
13 *468:A *53:26 0.000976594
14 *468:A *96:12 1.02504e-05
15 *468:A *118:6 2.99572e-05
16 *468:A *136:18 1.02504e-05
17 *468:A *154:30 3.80079e-05
18 *468:A *155:10 1.00375e-05
19 *467:A *468:A 0
*RES
1 chanx_right_in[3] *468:A 45.3199 
*END

*D_NET *26 0.00097807
*CONN
*P chanx_right_in[4] I
*I *469:A I *D sky130_fd_sc_hd__buf_1
*CAP
1 chanx_right_in[4] 0.000468947
2 *469:A 0.000468947
3 *469:A *451:TE_B 4.01768e-05
4 *469:A *470:A 0
5 *469:A *130:16 0
6 *468:A *469:A 0
*RES
1 chanx_right_in[4] *469:A 22.8709 
*END

*D_NET *27 0.00567721
*CONN
*P chanx_right_in[5] I
*I *470:A I *D sky130_fd_sc_hd__clkbuf_1
*CAP
1 chanx_right_in[5] 0.00228112
2 *470:A 0.00228112
3 *470:A *344:A 2.26424e-05
4 *470:A *350:A 3.99614e-06
5 *470:A *354:A 5.7661e-06
6 *470:A *356:A 1.02132e-05
7 *470:A *399:D 5.52302e-05
8 *470:A *400:D 0.000175283
9 *470:A *438:TE_B 0.000138161
10 *470:A *442:A 0.000188776
11 *470:A *443:TE_B 2.75484e-05
12 *470:A *447:TE_B 0
13 *470:A *451:A 0.000235332
14 *470:A *460:A 7.8195e-05
15 *470:A *471:A 0
16 *470:A *53:26 0
17 *470:A *96:16 1.13883e-05
18 *470:A *111:10 0.00012401
19 *470:A *120:10 3.84349e-05
20 *469:A *470:A 0
*RES
1 chanx_right_in[5] *470:A 39.3352 
*END

*D_NET *28 0.000605072
*CONN
*P chanx_right_in[6] I
*I *471:A I *D sky130_fd_sc_hd__buf_1
*CAP
1 chanx_right_in[6] 0.000299653
2 *471:A 0.000299653
3 *471:A *472:A 0
4 *471:A *130:16 0
5 *471:A *131:8 5.7661e-06
6 *470:A *471:A 0
*RES
1 chanx_right_in[6] *471:A 20.031 
*END

*D_NET *29 0.00209428
*CONN
*P chanx_right_in[7] I
*I *472:A I *D sky130_fd_sc_hd__clkbuf_1
*CAP
1 chanx_right_in[7] 0.000939733
2 *472:A 0.000939733
3 *472:A *398:D 7.3078e-05
4 *472:A *473:A 0
5 *472:A *489:A 0.000141734
6 *472:A *503:A 0
7 *471:A *472:A 0
*RES
1 chanx_right_in[7] *472:A 22.5419 
*END

*D_NET *30 0.00133683
*CONN
*P chanx_right_in[8] I
*I *473:A I *D sky130_fd_sc_hd__buf_1
*CAP
1 chanx_right_in[8] 0.000635267
2 *473:A 0.000635267
3 *473:A top_grid_bottom_width_0_height_0_subtile_0__pin_I_2_ 6.62983e-05
4 *473:A top_grid_bottom_width_0_height_0_subtile_0__pin_I_6_ 0
5 *473:A *502:A 0
6 *463:A *473:A 0
7 *472:A *473:A 0
*RES
1 chanx_right_in[8] *473:A 24.0329 
*END

*D_NET *31 0.00105044
*CONN
*P chanx_right_out[0] O
*I *493:X O *D sky130_fd_sc_hd__clkbuf_4
*CAP
1 chanx_right_out[0] 0.000525218
2 *493:X 0.000525218
*RES
1 *493:X chanx_right_out[0] 23.5857 
*END

*D_NET *32 0.00098298
*CONN
*P chanx_right_out[1] O
*I *494:X O *D sky130_fd_sc_hd__clkbuf_4
*CAP
1 chanx_right_out[1] 0.000472781
2 *494:X 0.000472781
3 chanx_right_out[1] *493:A 6.05161e-06
4 chanx_right_out[1] *494:A 3.1367e-05
*RES
1 *494:X chanx_right_out[1] 22.05 
*END

*D_NET *33 0.00099098
*CONN
*P chanx_right_out[2] O
*I *495:X O *D sky130_fd_sc_hd__clkbuf_4
*CAP
1 chanx_right_out[2] 0.000465101
2 *495:X 0.000465101
3 chanx_right_out[2] *495:A 5.33433e-05
4 chanx_right_out[2] *496:A 7.43578e-06
5 chanx_right_out[2] *40:17 0
*RES
1 *495:X chanx_right_out[2] 22.05 
*END

*D_NET *34 0.000883051
*CONN
*P chanx_right_out[3] O
*I *496:X O *D sky130_fd_sc_hd__clkbuf_4
*CAP
1 chanx_right_out[3] 0.000441526
2 *496:X 0.000441526
3 chanx_right_out[3] *40:17 0
*RES
1 *496:X chanx_right_out[3] 22.05 
*END

*D_NET *35 0.000791452
*CONN
*P chanx_right_out[4] O
*I *497:X O *D sky130_fd_sc_hd__clkbuf_4
*CAP
1 chanx_right_out[4] 0.000361697
2 *497:X 0.000361697
3 chanx_right_out[4] chanx_right_out[5] 0
4 chanx_right_out[4] *155:10 6.80593e-05
*RES
1 *497:X chanx_right_out[4] 21.6571 
*END

*D_NET *36 0.00109542
*CONN
*P chanx_right_out[5] O
*I *498:X O *D sky130_fd_sc_hd__clkbuf_4
*CAP
1 chanx_right_out[5] 0.000529226
2 *498:X 0.000529226
3 chanx_right_out[5] chanx_right_out[6] 0
4 chanx_right_out[5] *501:A 0
5 chanx_right_out[5] *135:20 3.69697e-05
6 chanx_right_out[4] chanx_right_out[5] 0
*RES
1 *498:X chanx_right_out[5] 32.8179 
*END

*D_NET *37 0.00106386
*CONN
*P chanx_right_out[6] O
*I *499:X O *D sky130_fd_sc_hd__clkbuf_4
*CAP
1 chanx_right_out[6] 0.000497922
2 *499:X 0.000497922
3 chanx_right_out[6] *387:A 1.59373e-05
4 chanx_right_out[6] *499:A 5.20751e-05
5 chanx_right_out[5] chanx_right_out[6] 0
6 *465:A chanx_right_out[6] 0
*RES
1 *499:X chanx_right_out[6] 22.05 
*END

*D_NET *38 0.00104054
*CONN
*P chanx_right_out[7] O
*I *500:X O *D sky130_fd_sc_hd__clkbuf_4
*CAP
1 chanx_right_out[7] 0.000463089
2 *500:X 0.000463089
3 chanx_right_out[7] *442:TE_B 1.55936e-05
4 chanx_right_out[7] *154:30 9.87672e-05
5 *465:A chanx_right_out[7] 0
*RES
1 *500:X chanx_right_out[7] 22.05 
*END

*D_NET *39 0.00103107
*CONN
*P chanx_right_out[8] O
*I *501:X O *D sky130_fd_sc_hd__clkbuf_4
*CAP
1 chanx_right_out[8] 0.000455013
2 *501:X 0.000455013
3 chanx_right_out[8] *501:A 4.78056e-05
4 *466:A chanx_right_out[8] 7.3237e-05
*RES
1 *501:X chanx_right_out[8] 22.05 
*END

*D_NET *40 0.00734155
*CONN
*P prog_clk I
*I *453:A I *D sky130_fd_sc_hd__clkbuf_16
*CAP
1 prog_clk 0.00248952
2 *453:A 0
3 *40:17 0.00248952
4 *40:17 *389:A 1.93106e-05
5 *40:17 *400:CLK 0.000715819
6 *40:17 *440:A 6.09572e-05
7 *40:17 *446:TE_B 0
8 *40:17 *496:A 0.000233012
9 *40:17 *497:A 3.14163e-05
10 *40:17 *127:32 9.87672e-05
11 *40:17 *152:16 0.00092855
12 chanx_right_out[2] *40:17 0
13 chanx_right_out[3] *40:17 0
14 *467:A *40:17 0.000274668
15 *474:A *40:17 0
*RES
1 prog_clk *40:17 47.907 
2 *40:17 *453:A 13.8 
*END

*D_NET *41 0.00117805
*CONN
*P top_grid_bottom_width_0_height_0_subtile_0__pin_I_2_ O
*I *502:X O *D sky130_fd_sc_hd__clkbuf_4
*CAP
1 top_grid_bottom_width_0_height_0_subtile_0__pin_I_2_ 0.000540018
2 *502:X 0.000540018
3 top_grid_bottom_width_0_height_0_subtile_0__pin_I_2_ *502:A 3.17163e-05
4 ccff_tail top_grid_bottom_width_0_height_0_subtile_0__pin_I_2_ 0
5 *463:A top_grid_bottom_width_0_height_0_subtile_0__pin_I_2_ 0
6 *473:A top_grid_bottom_width_0_height_0_subtile_0__pin_I_2_ 6.62983e-05
*RES
1 *502:X top_grid_bottom_width_0_height_0_subtile_0__pin_I_2_ 23.675 
*END

*D_NET *42 0.00211241
*CONN
*P top_grid_bottom_width_0_height_0_subtile_0__pin_I_6_ O
*I *503:X O *D sky130_fd_sc_hd__clkbuf_4
*CAP
1 top_grid_bottom_width_0_height_0_subtile_0__pin_I_6_ 0.000932425
2 *503:X 0.000932425
3 top_grid_bottom_width_0_height_0_subtile_0__pin_I_6_ *483:A 5.52302e-05
4 top_grid_bottom_width_0_height_0_subtile_0__pin_I_6_ *502:A 0.00017489
5 ccff_tail top_grid_bottom_width_0_height_0_subtile_0__pin_I_6_ 1.74352e-05
6 *473:A top_grid_bottom_width_0_height_0_subtile_0__pin_I_6_ 0
*RES
1 *503:X top_grid_bottom_width_0_height_0_subtile_0__pin_I_6_ 31.8 
*END

*D_NET *45 0.000191357
*CONN
*I *375:A I *D sky130_fd_sc_hd__clkbuf_1
*I *374:X O *D sky130_fd_sc_hd__clkbuf_1
*CAP
1 *375:A 3.37239e-05
2 *374:X 3.37239e-05
3 *375:A *427:Z 4.9071e-05
4 *375:A *433:TE_B 1.74352e-05
5 *375:A *90:10 3.76337e-05
6 *375:A *90:19 1.97695e-05
*RES
1 *374:X *375:A 19.8679 
*END

*D_NET *46 0.000958809
*CONN
*I *377:A I *D sky130_fd_sc_hd__clkbuf_1
*I *376:X O *D sky130_fd_sc_hd__clkbuf_1
*CAP
1 *377:A 0.000357808
2 *376:X 0.000357808
3 *377:A *364:A 5.65955e-05
4 *377:A *376:A 3.5707e-05
5 *377:A *424:TE_B 6.32825e-05
6 *377:A *429:TE_B 8.76084e-05
7 *377:A *128:12 0
*RES
1 *376:X *377:A 34.0107 
*END

*D_NET *47 0.00133969
*CONN
*I *379:A I *D sky130_fd_sc_hd__clkbuf_1
*I *378:X O *D sky130_fd_sc_hd__clkbuf_1
*CAP
1 *379:A 0.000459488
2 *378:X 0.000459488
3 *379:A *378:A 0.000309134
4 *379:A *434:A 5.97623e-05
5 *379:A *92:14 4.25716e-05
6 *379:A *152:16 9.25014e-06
*RES
1 *378:X *379:A 34.7071 
*END

*D_NET *48 0.000493763
*CONN
*I *341:A I *D sky130_fd_sc_hd__clkbuf_1
*I *340:X O *D sky130_fd_sc_hd__clkbuf_1
*CAP
1 *341:A 0.000192691
2 *340:X 0.000192691
3 *341:A *339:A 5.65955e-05
4 *341:A *450:TE_B 5.17847e-05
*RES
1 *340:X *341:A 22.0464 
*END

*D_NET *49 0.00133219
*CONN
*I *343:A I *D sky130_fd_sc_hd__clkbuf_1
*I *342:X O *D sky130_fd_sc_hd__clkbuf_1
*CAP
1 *343:A 0.000334228
2 *342:X 0.000334228
3 *343:A *342:A 0
4 *343:A *395:A 0.000306927
5 *343:A *398:CLK 4.15914e-05
6 *343:A *439:A 0
7 *343:A *448:TE_B 0.000139904
8 *343:A *94:12 0.000120357
9 *343:A *94:19 5.49489e-05
*RES
1 *342:X *343:A 35.6536 
*END

*D_NET *50 0.00019202
*CONN
*I *348:A I *D sky130_fd_sc_hd__clkbuf_1
*I *347:X O *D sky130_fd_sc_hd__clkbuf_1
*CAP
1 *348:A 3.52673e-05
2 *347:X 3.52673e-05
3 *348:A *347:A 6.48901e-05
4 *348:A *454:A 5.65955e-05
*RES
1 *347:X *348:A 19.8679 
*END

*D_NET *51 0.000192461
*CONN
*I *350:A I *D sky130_fd_sc_hd__clkbuf_1
*I *349:X O *D sky130_fd_sc_hd__clkbuf_1
*CAP
1 *350:A 4.00944e-05
2 *349:X 4.00944e-05
3 *350:A *354:A 5.52238e-05
4 *350:A *356:A 0
5 *350:A *96:16 5.30518e-05
6 *350:A *96:18 0
7 *470:A *350:A 3.99614e-06
*RES
1 *349:X *350:A 19.8679 
*END

*D_NET *52 0.000687115
*CONN
*I *353:A I *D sky130_fd_sc_hd__clkbuf_1
*I *352:X O *D sky130_fd_sc_hd__clkbuf_1
*CAP
1 *353:A 0.000100676
2 *352:X 0.000100676
3 *353:A *351:A 0.000100685
4 *353:A *354:A 0.000179334
5 *353:A *446:TE_B 0.000101468
6 *353:A *95:32 5.7661e-06
7 *353:A *154:30 9.85101e-05
*RES
1 *352:X *353:A 22.5821 
*END

*D_NET *53 0.0059698
*CONN
*I *355:A I *D sky130_fd_sc_hd__clkbuf_1
*I *354:X O *D sky130_fd_sc_hd__clkbuf_1
*CAP
1 *355:A 0.000427603
2 *354:X 0.00124362
3 *53:26 0.00167122
4 *355:A *450:Z 0.00014285
5 *355:A *454:A 9.90431e-05
6 *355:A *455:A 4.38128e-05
7 *355:A *89:8 4.87953e-05
8 *355:A *129:18 0.000464033
9 *53:26 *345:A 0.000147048
10 *53:26 *415:A 0
11 *53:26 *445:A 0.000148911
12 *53:26 *446:TE_B 1.98839e-05
13 *53:26 *447:TE_B 4.84853e-05
14 *53:26 *450:TE_B 1.33343e-05
15 *53:26 *454:A 1.54142e-05
16 *53:26 *95:46 0
17 *53:26 *96:12 2.8266e-06
18 *53:26 *111:10 0
19 *53:26 *125:14 0.000193833
20 *53:26 *127:32 3.84478e-05
21 *53:26 *129:18 2.26872e-05
22 *53:26 *154:30 9.90431e-05
23 *53:26 *155:10 0.000102315
24 *468:A *53:26 0.000976594
25 *470:A *53:26 0
*RES
1 *354:X *53:26 49.0679 
2 *53:26 *355:A 19.2821 
*END

*D_NET *54 0.00137776
*CONN
*I *359:A I *D sky130_fd_sc_hd__clkbuf_1
*I *358:X O *D sky130_fd_sc_hd__clkbuf_1
*CAP
1 *359:A 0.000457915
2 *358:X 0.000457915
3 *359:A *358:A 6.05161e-06
4 *359:A *439:TE_B 4.85049e-06
5 *359:A *95:12 0.000338359
6 *359:A *126:24 0.000112668
*RES
1 *358:X *359:A 36.6536 
*END

*D_NET *55 0.00190266
*CONN
*I *361:A I *D sky130_fd_sc_hd__clkbuf_1
*I *360:X O *D sky130_fd_sc_hd__clkbuf_1
*CAP
1 *361:A 0.000591484
2 *360:X 0.000591484
3 *361:A *387:A 0.000141131
4 *361:A *399:D 9.91086e-05
5 *361:A *436:A 9.41642e-05
6 *361:A *436:TE_B 3.97677e-05
7 *361:A *439:TE_B 1.55885e-05
8 *361:A *442:TE_B 0.000133121
9 *361:A *443:TE_B 0.000169719
10 *361:A *483:A 0
11 *361:A *126:24 2.70899e-05
12 *361:A *130:16 0
13 *361:A *136:18 0
*RES
1 *360:X *361:A 38.7607 
*END

*D_NET *56 0.00045297
*CONN
*I *366:A I *D sky130_fd_sc_hd__clkbuf_1
*I *365:X O *D sky130_fd_sc_hd__clkbuf_1
*CAP
1 *366:A 0.000159488
2 *365:X 0.000159488
3 *366:A *91:25 3.4846e-06
4 *366:A *91:35 7.14981e-06
5 *366:A *172:20 0.000123359
*RES
1 *365:X *366:A 30.1893 
*END

*D_NET *57 0.0010063
*CONN
*I *369:A I *D sky130_fd_sc_hd__clkbuf_1
*I *368:X O *D sky130_fd_sc_hd__clkbuf_1
*CAP
1 *369:A 0.000325966
2 *368:X 0.000325966
3 *369:A *426:A 0.000169118
4 *369:A *426:TE_B 4.2678e-05
5 *369:A *430:A 7.83587e-05
6 *369:A *90:35 6.42095e-05
*RES
1 *368:X *369:A 33.6179 
*END

*D_NET *58 0.000247689
*CONN
*I *371:A I *D sky130_fd_sc_hd__clkbuf_1
*I *370:X O *D sky130_fd_sc_hd__clkbuf_1
*CAP
1 *371:A 6.86071e-05
2 *370:X 6.86071e-05
3 *371:A *362:A 0.000110475
*RES
1 *370:X *371:A 20.2786 
*END

*D_NET *59 0.000392078
*CONN
*I *422:TE_B I *D sky130_fd_sc_hd__ebufn_1
*I *379:X O *D sky130_fd_sc_hd__clkbuf_1
*CAP
1 *422:TE_B 9.7427e-05
2 *379:X 9.7427e-05
3 *422:TE_B *427:A 7.14923e-05
4 *422:TE_B *434:A 0.000125731
*RES
1 *379:X *422:TE_B 29.7786 
*END

*D_NET *60 0.00120591
*CONN
*I *424:TE_B I *D sky130_fd_sc_hd__ebufn_1
*I *377:X O *D sky130_fd_sc_hd__clkbuf_1
*CAP
1 *424:TE_B 0.000366359
2 *377:X 0.000366359
3 *424:TE_B *429:TE_B 0.000225393
4 *424:TE_B *103:6 0.000184521
5 *377:A *424:TE_B 6.32825e-05
*RES
1 *377:X *424:TE_B 25.725 
*END

*D_NET *61 0.000259633
*CONN
*I *425:TE_B I *D sky130_fd_sc_hd__ebufn_1
*I *371:X O *D sky130_fd_sc_hd__clkbuf_1
*CAP
1 *425:TE_B 6.48825e-05
2 *371:X 6.48825e-05
3 *425:TE_B *406:A 0.000129868
4 *425:TE_B *427:A 0
*RES
1 *371:X *425:TE_B 29.2429 
*END

*D_NET *62 0.0007925
*CONN
*I *426:TE_B I *D sky130_fd_sc_hd__ebufn_1
*I *369:X O *D sky130_fd_sc_hd__clkbuf_1
*CAP
1 *426:TE_B 0.000203831
2 *369:X 0.000203831
3 *426:TE_B *426:A 2.44318e-05
4 *426:TE_B *430:TE_B 0.000136951
5 *426:TE_B *90:35 0.000180777
6 *369:A *426:TE_B 4.2678e-05
*RES
1 *369:X *426:TE_B 22.8679 
*END

*D_NET *63 0.00044541
*CONN
*I *427:TE_B I *D sky130_fd_sc_hd__ebufn_1
*I *375:X O *D sky130_fd_sc_hd__clkbuf_1
*CAP
1 *427:TE_B 0.000169704
2 *375:X 0.000169704
3 *427:TE_B *427:Z 5.49544e-05
4 *427:TE_B *90:10 5.10469e-05
*RES
1 *375:X *427:TE_B 21.6179 
*END

*D_NET *64 0.00119924
*CONN
*I *428:TE_B I *D sky130_fd_sc_hd__ebufn_1
*I *366:X O *D sky130_fd_sc_hd__clkbuf_1
*CAP
1 *428:TE_B 0.000263042
2 *366:X 0.000263042
3 *428:TE_B *363:A 0.000188244
4 *428:TE_B *397:D 0.000181683