*SPEF "ieee 1481-1999"
*DESIGN "cbx_1__10_"
*DATE "11:11:11 Fri 11 11, 1111"
*VENDOR "OpenRCX"
*PROGRAM "Parallel Extraction"
*VERSION "1.0"
*DESIGN_FLOW "NAME_SCOPE LOCAL" "PIN_CAP NONE"
*DIVIDER /
*DELIMITER :
*BUS_DELIMITER []
*T_UNIT 1 NS
*C_UNIT 1 PF
*R_UNIT 1 OHM
*L_UNIT 1 HENRY

*NAME_MAP
*1 bottom_grid_top_width_0_height_0_subtile_0__pin_I_0_
*2 bottom_grid_top_width_0_height_0_subtile_0__pin_I_4_
*3 bottom_grid_top_width_0_height_0_subtile_0__pin_I_8_
*4 ccff_head
*5 ccff_tail
*6 chanx_left_in[0]
*7 chanx_left_in[1]
*8 chanx_left_in[2]
*9 chanx_left_in[3]
*10 chanx_left_in[4]
*11 chanx_left_in[5]
*12 chanx_left_in[6]
*13 chanx_left_in[7]
*14 chanx_left_in[8]
*15 chanx_left_out[0]
*16 chanx_left_out[1]
*17 chanx_left_out[2]
*18 chanx_left_out[3]
*19 chanx_left_out[4]
*20 chanx_left_out[5]
*21 chanx_left_out[6]
*22 chanx_left_out[7]
*23 chanx_left_out[8]
*24 chanx_right_in[0]
*25 chanx_right_in[1]
*26 chanx_right_in[2]
*27 chanx_right_in[3]
*28 chanx_right_in[4]
*29 chanx_right_in[5]
*30 chanx_right_in[6]
*31 chanx_right_in[7]
*32 chanx_right_in[8]
*33 chanx_right_out[0]
*34 chanx_right_out[1]
*35 chanx_right_out[2]
*36 chanx_right_out[3]
*37 chanx_right_out[4]
*38 chanx_right_out[5]
*39 chanx_right_out[6]
*40 chanx_right_out[7]
*41 chanx_right_out[8]
*42 prog_clk
*43 top_grid_bottom_width_0_height_0_subtile_0__pin_outpad_0_
*46 _000_
*47 _001_
*48 _002_
*49 _003_
*50 _004_
*51 _005_
*52 _006_
*53 _007_
*54 _008_
*55 _009_
*56 _010_
*57 _011_
*58 _012_
*59 _013_
*60 _014_
*61 _015_
*62 _016_
*63 _017_
*64 _018_
*65 _019_
*66 _020_
*67 _021_
*68 _022_
*69 _023_
*70 _024_
*71 _025_
*72 _026_
*73 _027_
*74 _028_
*75 _029_
*76 _030_
*77 _031_
*78 _032_
*79 _033_
*80 _034_
*81 _035_
*82 _036_
*83 _037_
*84 _038_
*85 _039_
*86 _040_
*87 _041_
*88 _042_
*89 _043_
*90 _044_
*91 _045_
*92 _046_
*93 _047_
*94 clknet_0_prog_clk
*95 clknet_1_0__leaf_prog_clk
*96 clknet_1_1__leaf_prog_clk
*97 mem_bottom_ipin_0\.DFF_0_\.Q
*98 mem_bottom_ipin_0\.DFF_1_\.Q
*99 mem_bottom_ipin_0\.DFF_2_\.Q
*100 mem_top_ipin_0\.DFF_0_\.Q
*101 mem_top_ipin_0\.DFF_1_\.Q
*102 mem_top_ipin_0\.DFF_2_\.Q
*103 mem_top_ipin_1\.DFF_0_\.Q
*104 mem_top_ipin_1\.DFF_1_\.Q
*105 mem_top_ipin_2\.DFF_0_\.Q
*106 mux_bottom_ipin_0\.INVTX1_0_\.out
*107 mux_bottom_ipin_0\.INVTX1_1_\.out
*108 mux_bottom_ipin_0\.INVTX1_2_\.out
*109 mux_bottom_ipin_0\.INVTX1_3_\.out
*110 mux_bottom_ipin_0\.INVTX1_4_\.out
*111 mux_bottom_ipin_0\.INVTX1_5_\.out
*112 mux_bottom_ipin_0\.mux_l1_in_0_\.TGATE_0_\.out
*113 mux_bottom_ipin_0\.mux_l1_in_1_\.TGATE_0_\.out
*114 mux_bottom_ipin_0\.mux_l1_in_2_\.TGATE_0_\.out
*115 mux_bottom_ipin_0\.mux_l2_in_0_\.TGATE_0_\.out
*116 mux_bottom_ipin_0\.mux_l2_in_1_\.TGATE_0_\.out
*117 mux_bottom_ipin_0\.mux_l3_in_0_\.TGATE_0_\.out
*118 mux_top_ipin_0\.INVTX1_2_\.out
*119 mux_top_ipin_0\.INVTX1_3_\.out
*120 mux_top_ipin_0\.INVTX1_4_\.out
*121 mux_top_ipin_0\.INVTX1_5_\.out
*122 mux_top_ipin_0\.mux_l1_in_0_\.TGATE_0_\.out
*123 mux_top_ipin_0\.mux_l1_in_1_\.TGATE_0_\.out
*124 mux_top_ipin_0\.mux_l1_in_2_\.TGATE_0_\.out
*125 mux_top_ipin_0\.mux_l2_in_0_\.TGATE_0_\.out
*126 mux_top_ipin_0\.mux_l2_in_1_\.TGATE_0_\.out
*127 mux_top_ipin_0\.mux_l3_in_0_\.TGATE_0_\.out
*128 mux_top_ipin_1\.INVTX1_0_\.out
*129 mux_top_ipin_1\.INVTX1_1_\.out
*130 mux_top_ipin_1\.mux_l1_in_0_\.TGATE_0_\.out
*131 mux_top_ipin_1\.mux_l2_in_0_\.TGATE_0_\.out
*132 mux_top_ipin_2\.INVTX1_0_\.out
*133 mux_top_ipin_2\.INVTX1_1_\.out
*134 mux_top_ipin_2\.mux_l1_in_0_\.TGATE_0_\.out
*135 mux_top_ipin_2\.mux_l2_in_0_\.TGATE_0_\.out
*136 net1
*137 net10
*138 net11
*139 net12
*140 net13
*141 net14
*142 net15
*143 net16
*144 net17
*145 net18
*146 net19
*147 net2
*148 net20
*149 net21
*150 net22
*151 net23
*152 net24
*153 net25
*154 net26
*155 net27
*156 net28
*157 net29
*158 net3
*159 net30
*160 net31
*161 net32
*162 net33
*163 net34
*164 net35
*165 net36
*166 net37
*167 net38
*168 net39
*169 net4
*170 net40
*171 net41
*172 net42
*173 net43
*174 net44
*175 net45
*176 net46
*177 net47
*178 net48
*179 net49
*180 net5
*181 net50
*182 net51
*183 net52
*184 net53
*185 net54
*186 net55
*187 net6
*188 net7
*189 net8
*190 net9
*191 ANTENNA_1
*192 ANTENNA_2
*193 ANTENNA_3
*194 FILLER_0_0_29
*195 FILLER_0_0_3
*196 FILLER_0_0_39
*197 FILLER_0_0_57
*198 FILLER_0_10_15
*199 FILLER_0_10_27
*200 FILLER_0_10_29
*201 FILLER_0_10_3
*202 FILLER_0_10_41
*203 FILLER_0_10_50
*204 FILLER_0_10_56
*205 FILLER_0_10_82
*206 FILLER_0_10_85
*207 FILLER_0_11_101
*208 FILLER_0_11_18
*209 FILLER_0_11_30
*210 FILLER_0_11_42
*211 FILLER_0_11_47
*212 FILLER_0_11_55
*213 FILLER_0_11_57
*214 FILLER_0_11_6
*215 FILLER_0_11_69
*216 FILLER_0_11_74
*217 FILLER_0_11_82
*218 FILLER_0_12_13
*219 FILLER_0_12_25
*220 FILLER_0_12_29
*221 FILLER_0_12_40
*222 FILLER_0_12_52
*223 FILLER_0_12_57
*224 FILLER_0_12_69
*225 FILLER_0_12_81
*226 FILLER_0_12_85
*227 FILLER_0_12_9
*228 FILLER_0_13_20
*229 FILLER_0_13_27
*230 FILLER_0_13_29
*231 FILLER_0_13_33
*232 FILLER_0_13_40
*233 FILLER_0_13_46
*234 FILLER_0_13_53
*235 FILLER_0_13_57
*236 FILLER_0_13_6
*237 FILLER_0_13_66
*238 FILLER_0_13_72
*239 FILLER_0_13_79
*240 FILLER_0_13_85
*241 FILLER_0_13_92
*242 FILLER_0_1_102
*243 FILLER_0_1_3
*244 FILLER_0_1_52
*245 FILLER_0_1_8
*246 FILLER_0_2_102
*247 FILLER_0_2_11
*248 FILLER_0_2_15
*249 FILLER_0_2_29
*250 FILLER_0_2_3
*251 FILLER_0_2_56
*252 FILLER_0_2_82
*253 FILLER_0_2_85
*254 FILLER_0_2_91
*255 FILLER_0_3_101
*256 FILLER_0_3_12
*257 FILLER_0_3_29
*258 FILLER_0_3_74
*259 FILLER_0_3_83
*260 FILLER_0_4_40
*261 FILLER_0_4_9
*262 FILLER_0_4_93
*263 FILLER_0_5_101
*264 FILLER_0_5_11
*265 FILLER_0_5_21
*266 FILLER_0_5_40
*267 FILLER_0_5_6
*268 FILLER_0_5_77
*269 FILLER_0_6_101
*270 FILLER_0_6_26
*271 FILLER_0_6_3
*272 FILLER_0_6_45
*273 FILLER_0_6_83
*274 FILLER_0_6_91
*275 FILLER_0_7_101
*276 FILLER_0_7_28
*277 FILLER_0_7_46
*278 FILLER_0_7_57
*279 FILLER_0_7_9
*280 FILLER_0_8_102
*281 FILLER_0_8_22
*282 FILLER_0_8_29
*283 FILLER_0_8_3
*284 FILLER_0_8_59
*285 FILLER_0_8_71
*286 FILLER_0_8_8
*287 FILLER_0_8_82
*288 FILLER_0_9_21
*289 FILLER_0_9_33
*290 FILLER_0_9_55
*291 FILLER_0_9_57
*292 FILLER_0_9_9
*293 FILLER_0_9_93
*294 FILLER_0_9_98
*295 PHY_0
*296 PHY_1
*297 PHY_10
*298 PHY_11
*299 PHY_12
*300 PHY_13
*301 PHY_14
*302 PHY_15
*303 PHY_16
*304 PHY_17
*305 PHY_18
*306 PHY_19
*307 PHY_2
*308 PHY_20
*309 PHY_21
*310 PHY_22
*311 PHY_23
*312 PHY_24
*313 PHY_25
*314 PHY_26
*315 PHY_27
*316 PHY_3
*317 PHY_4
*318 PHY_5
*319 PHY_6
*320 PHY_7
*321 PHY_8
*322 PHY_9
*323 TAP_28
*324 TAP_29
*325 TAP_30
*326 TAP_31
*327 TAP_32
*328 TAP_33
*329 TAP_34
*330 TAP_35
*331 TAP_36
*332 TAP_37
*333 TAP_38
*334 TAP_39
*335 TAP_40
*336 TAP_41
*337 TAP_42
*338 TAP_43
*339 TAP_44
*340 TAP_45
*341 TAP_46
*342 TAP_47
*343 TAP_48
*344 TAP_49
*345 TAP_50
*346 TAP_51
*347 _052_
*348 _053_
*349 _054_
*350 _055_
*351 _056_
*352 _057_
*353 _058_
*354 _059_
*355 _060_
*356 _061_
*357 _062_
*358 _063_
*359 _064_
*360 _065_
*361 _066_
*362 _067_
*363 _068_
*364 _069_
*365 _070_
*366 _071_
*367 _072_
*368 _073_
*369 _074_
*370 _075_
*371 _076_
*372 _077_
*373 _078_
*374 _079_
*375 _080_
*376 _081_
*377 _082_
*378 _083_
*379 _084_
*380 _085_
*381 _086_
*382 _087_
*383 _088_
*384 _089_
*385 _090_
*386 _091_
*387 _092_
*388 _093_
*389 _094_
*390 _095_
*391 _096_
*392 _097_
*393 _098_
*394 _099_
*395 _100_
*396 _101_
*397 _102_
*398 _103_
*399 _104_
*400 _105_
*401 _106_
*402 _107_
*403 _108_
*404 _109_
*405 _110_
*406 _111_
*407 _112_
*408 _113_
*409 _114_
*410 _115_
*411 _116_
*412 _117_
*413 _118_
*414 _119_
*415 _120_
*416 _121_
*417 _122_
*418 _123_
*419 _124_
*420 _125_
*421 _126_
*422 _127_
*423 _132_
*424 _133_
*425 _134_
*426 _135_
*427 _136_
*428 _137_
*429 _138_
*430 _139_
*431 _140_
*432 _141_
*433 _142_
*434 _143_
*435 _144_
*436 _145_
*437 _146_
*438 _147_
*439 _148_
*440 _149_
*441 _150_
*442 _150__43
*443 _151_
*444 _152_
*445 _153_
*446 _154_
*447 _155_
*448 _156_
*449 _157_
*450 _158_
*451 _159_
*452 _160_
*453 _161_
*454 _162_
*455 _163_
*456 _163__44
*457 _164_
*458 _165_
*459 _166_
*460 _167_
*461 _168_
*462 _169_
*463 _170_
*464 _171_
*465 _172_
*466 _173_
*467 _174_
*468 _174__45
*469 _175_
*470 _176_
*471 _177_
*472 _178_
*473 _178__46
*474 _179_
*475 _180_
*476 _181_
*477 clkbuf_0_prog_clk
*478 clkbuf_1_0__f_prog_clk
*479 clkbuf_1_1__f_prog_clk
*480 hold1
*481 hold2
*482 hold3
*483 hold4
*484 hold5
*485 hold6
*486 hold7
*487 hold8
*488 hold9
*489 input1
*490 input10
*491 input11
*492 input12
*493 input13
*494 input14
*495 input15
*496 input16
*497 input17
*498 input18
*499 input19
*500 input2
*501 input3
*502 input4
*503 input5
*504 input6
*505 input7
*506 input8
*507 input9
*508 output20
*509 output21
*510 output22
*511 output23
*512 output24
*513 output25
*514 output26
*515 output27
*516 output28
*517 output29
*518 output30
*519 output31
*520 output32
*521 output33
*522 output34
*523 output35
*524 output36
*525 output37
*526 output38
*527 output39
*528 output40
*529 output41
*530 output42

*PORTS
bottom_grid_top_width_0_height_0_subtile_0__pin_I_0_ O
bottom_grid_top_width_0_height_0_subtile_0__pin_I_4_ O
bottom_grid_top_width_0_height_0_subtile_0__pin_I_8_ O
ccff_head I
ccff_tail O
chanx_left_in[0] I
chanx_left_in[1] I
chanx_left_in[2] I
chanx_left_in[3] I
chanx_left_in[4] I
chanx_left_in[5] I
chanx_left_in[6] I
chanx_left_in[7] I
chanx_left_in[8] I
chanx_left_out[0] O
chanx_left_out[1] O
chanx_left_out[2] O
chanx_left_out[3] O
chanx_left_out[4] O
chanx_left_out[5] O
chanx_left_out[6] O
chanx_left_out[7] O
chanx_left_out[8] O
chanx_right_in[0] I
chanx_right_in[1] I
chanx_right_in[2] I
chanx_right_in[3] I
chanx_right_in[4] I
chanx_right_in[5] I
chanx_right_in[6] I
chanx_right_in[7] I
chanx_right_in[8] I
chanx_right_out[0] O
chanx_right_out[1] O
chanx_right_out[2] O
chanx_right_out[3] O
chanx_right_out[4] O
chanx_right_out[5] O
chanx_right_out[6] O
chanx_right_out[7] O
chanx_right_out[8] O
prog_clk I
top_grid_bottom_width_0_height_0_subtile_0__pin_outpad_0_ O

*D_NET *1 0.004608
*CONN
*P bottom_grid_top_width_0_height_0_subtile_0__pin_I_0_ O
*I *508:X O *D sky130_fd_sc_hd__clkbuf_4
*CAP
1 bottom_grid_top_width_0_height_0_subtile_0__pin_I_0_ 0.00146561
2 *508:X 0.00146561
3 bottom_grid_top_width_0_height_0_subtile_0__pin_I_0_ chanx_right_out[8] 0
4 bottom_grid_top_width_0_height_0_subtile_0__pin_I_0_ *421:D 0.000147828
5 bottom_grid_top_width_0_height_0_subtile_0__pin_I_0_ *422:D 0.000102184
6 bottom_grid_top_width_0_height_0_subtile_0__pin_I_0_ *471:TE_B 0
7 bottom_grid_top_width_0_height_0_subtile_0__pin_I_0_ *491:A 0
8 bottom_grid_top_width_0_height_0_subtile_0__pin_I_0_ *508:A 0.000159162
9 bottom_grid_top_width_0_height_0_subtile_0__pin_I_0_ *25:17 0.00116897
10 bottom_grid_top_width_0_height_0_subtile_0__pin_I_0_ *96:18 9.41642e-05
11 bottom_grid_top_width_0_height_0_subtile_0__pin_I_0_ *96:28 0
12 bottom_grid_top_width_0_height_0_subtile_0__pin_I_0_ *103:14 0
13 bottom_grid_top_width_0_height_0_subtile_0__pin_I_0_ *151:8 4.46231e-06
*RES
1 *508:X bottom_grid_top_width_0_height_0_subtile_0__pin_I_0_ 40.8893 
*END

*D_NET *2 0.0011287
*CONN
*P bottom_grid_top_width_0_height_0_subtile_0__pin_I_4_ O
*I *509:X O *D sky130_fd_sc_hd__clkbuf_4
*CAP
1 bottom_grid_top_width_0_height_0_subtile_0__pin_I_4_ 0.000390542
2 *509:X 0.000390542
3 bottom_grid_top_width_0_height_0_subtile_0__pin_I_4_ bottom_grid_top_width_0_height_0_subtile_0__pin_I_8_ 0
4 bottom_grid_top_width_0_height_0_subtile_0__pin_I_4_ *491:A 0.000215268
5 bottom_grid_top_width_0_height_0_subtile_0__pin_I_4_ *138:28 0.000132348
*RES
1 *509:X bottom_grid_top_width_0_height_0_subtile_0__pin_I_4_ 22.4607 
*END

*D_NET *3 0.00413576
*CONN
*P bottom_grid_top_width_0_height_0_subtile_0__pin_I_8_ O
*I *510:X O *D sky130_fd_sc_hd__clkbuf_4
*CAP
1 bottom_grid_top_width_0_height_0_subtile_0__pin_I_8_ 0.000547392
2 *510:X 0.000955198
3 *3:20 0.00150259
4 bottom_grid_top_width_0_height_0_subtile_0__pin_I_8_ *509:A 0
5 bottom_grid_top_width_0_height_0_subtile_0__pin_I_8_ *131:14 6.53485e-05
6 *3:20 chanx_right_out[8] 0.000298992
7 *3:20 *419:D 7.99677e-06
8 *3:20 *420:CLK 3.0285e-05
9 *3:20 *420:D 0.000139491
10 *3:20 *471:A 5.01649e-05
11 *3:20 *478:A 4.88637e-05
12 *3:20 *479:A 4.88637e-05
13 *3:20 *493:A 4.92231e-05
14 *3:20 *529:A 0.000225815
15 *3:20 *96:10 5.62995e-05
16 *3:20 *103:14 0.000100124
17 *3:20 *175:26 9.11048e-06
18 bottom_grid_top_width_0_height_0_subtile_0__pin_I_4_ bottom_grid_top_width_0_height_0_subtile_0__pin_I_8_ 0
*RES
1 *510:X *3:20 42.0857 
2 *3:20 bottom_grid_top_width_0_height_0_subtile_0__pin_I_8_ 9.92857 
*END

*D_NET *4 0.00217659
*CONN
*P ccff_head I
*I *489:A I *D sky130_fd_sc_hd__clkbuf_1
*CAP
1 ccff_head 0.000897163
2 *489:A 0.000897163
3 *489:A ccff_tail 6.08008e-05
4 *489:A chanx_left_out[7] 0.000270653
5 *489:A chanx_left_out[8] 0
6 *489:A *499:A 0
7 *489:A *518:A 3.48705e-05
8 *489:A *520:A 1.59373e-05
*RES
1 ccff_head *489:A 25.2185 
*END

*D_NET *5 0.00288897
*CONN
*P ccff_tail O
*I *511:X O *D sky130_fd_sc_hd__clkbuf_4
*CAP
1 ccff_tail 0.00127198
2 *511:X 0.00127198
3 ccff_tail chanx_left_out[7] 0
4 ccff_tail chanx_left_out[8] 0
5 ccff_tail top_grid_bottom_width_0_height_0_subtile_0__pin_outpad_0_ 4.24707e-05
6 ccff_tail *350:A 4.86382e-06
7 ccff_tail *423:A 9.7992e-05
8 ccff_tail *518:A 0
9 ccff_tail *519:A 1.31516e-05
10 ccff_tail *520:A 0.000125724
11 ccff_tail *146:8 0
12 *489:A ccff_tail 6.08008e-05
*RES
1 *511:X ccff_tail 32.399 
*END

*D_NET *6 0.00136802
*CONN
*P chanx_left_in[0] I
*I *500:A I *D sky130_fd_sc_hd__buf_1
*CAP
1 chanx_left_in[0] 0.000391085
2 *500:A 0.000391085
3 *500:A *477:A 0
4 *500:A *501:A 0
5 *500:A *523:A 8.96671e-06
6 *500:A *84:20 0.000304931
7 *500:A *166:24 0.000271951
*RES
1 chanx_left_in[0] *500:A 22.642 
*END

*D_NET *7 0.00511593
*CONN
*P chanx_left_in[1] I
*I *501:A I *D sky130_fd_sc_hd__buf_1
*CAP
1 chanx_left_in[1] 0.00136683
2 *501:A 0.00136683
3 *501:A *352:A 5.86084e-05
4 *501:A *375:A 0.000319476
5 *501:A *412:A 2.22043e-05
6 *501:A *429:A 0.000325888
7 *501:A *439:A 9.96242e-05
8 *501:A *457:TE_B 0
9 *501:A *459:Z 0.000261041
10 *501:A *502:A 0
11 *501:A *28:23 2.07772e-05
12 *501:A *80:30 0.000372177
13 *501:A *100:82 6.71264e-05
14 *501:A *101:34 0.000199547
15 *501:A *128:26 0.000191165
16 *501:A *148:26 1.65036e-05
17 *501:A *152:28 4.18597e-05
18 *501:A *165:18 1.62254e-05
19 *501:A *167:22 7.68716e-05
20 *501:A *175:26 0.000293181
21 *500:A *501:A 0
*RES
1 chanx_left_in[1] *501:A 35.0087 
*END

*D_NET *8 0.00069107
*CONN
*P chanx_left_in[2] I
*I *502:A I *D sky130_fd_sc_hd__buf_1
*CAP
1 chanx_left_in[2] 0.000345535
2 *502:A 0.000345535
3 *502:A *503:A 0
4 *502:A *142:16 0
5 *501:A *502:A 0
*RES
1 chanx_left_in[2] *502:A 22.0661 
*END

*D_NET *9 0.000700134
*CONN
*P chanx_left_in[3] I
*I *503:A I *D sky130_fd_sc_hd__buf_1
*CAP
1 chanx_left_in[3] 0.000350067
2 *503:A 0.000350067
3 *503:A *504:A 0
4 *503:A *142:16 0
5 *502:A *503:A 0
*RES
1 chanx_left_in[3] *503:A 22.0661 
*END

*D_NET *10 0.000769411
*CONN
*P chanx_left_in[4] I
*I *504:A I *D sky130_fd_sc_hd__buf_1
*CAP
1 chanx_left_in[4] 0.000302127
2 *504:A 0.000302127
3 *504:A *505:A 0
4 *504:A *142:16 0.000165157
5 *504:A *188:10 0
6 *503:A *504:A 0
*RES
1 chanx_left_in[4] *504:A 20.2479 
*END

*D_NET *11 0.000719405
*CONN
*P chanx_left_in[5] I
*I *505:A I *D sky130_fd_sc_hd__buf_1
*CAP
1 chanx_left_in[5] 0.000335907
2 *505:A 0.000335907
3 *505:A *403:A 0
4 *505:A *506:A 0
5 *505:A *152:28 4.75911e-05
6 *505:A *188:10 0
7 *504:A *505:A 0
*RES
1 chanx_left_in[5] *505:A 19.3406 
*END

*D_NET *12 0.000825601
*CONN
*P chanx_left_in[6] I
*I *506:A I *D sky130_fd_sc_hd__clkbuf_1
*CAP
1 chanx_left_in[6] 0.000412801
2 *506:A 0.000412801
3 *506:A chanx_left_out[0] 0
4 *506:A *434:A 0
5 *506:A *507:A 0
6 *505:A *506:A 0
*RES
1 chanx_left_in[6] *506:A 22.8875 
*END

*D_NET *13 0.00183948
*CONN
*P chanx_left_in[7] I
*I *507:A I *D sky130_fd_sc_hd__clkbuf_1
*CAP
1 chanx_left_in[7] 0.000797076
2 *507:A 0.000797076
3 *507:A chanx_left_out[1] 0
4 *507:A chanx_left_out[2] 9.70686e-05
5 *507:A *490:A 5.29605e-05
6 *507:A *513:A 0
7 *507:A *137:14 8.13132e-05
8 *507:A *154:22 1.39813e-05
9 *506:A *507:A 0
*RES
1 chanx_left_in[7] *507:A 24.0253 
*END

*D_NET *14 0.00287221
*CONN
*P chanx_left_in[8] I
*I *490:A I *D sky130_fd_sc_hd__buf_1
*CAP
1 chanx_left_in[8] 0.00116663
2 *490:A 0.00116663
3 *490:A chanx_left_out[2] 0.000485993
4 *490:A *513:A 0
5 *507:A *490:A 5.29605e-05
*RES
1 chanx_left_in[8] *490:A 33.295 
*END

*D_NET *15 0.00161677
*CONN
*P chanx_left_out[0] O
*I *512:X O *D sky130_fd_sc_hd__clkbuf_4
*CAP
1 chanx_left_out[0] 0.000808384
2 *512:X 0.000808384
3 *506:A chanx_left_out[0] 0
*RES
1 *512:X chanx_left_out[0] 27.7643 
*END

*D_NET *16 0.00114773
*CONN
*P chanx_left_out[1] O
*I *513:X O *D sky130_fd_sc_hd__clkbuf_4
*CAP
1 chanx_left_out[1] 0.000573864
2 *513:X 0.000573864
3 *507:A chanx_left_out[1] 0
*RES
1 *513:X chanx_left_out[1] 23.5857 
*END

*D_NET *17 0.00143616
*CONN
*P chanx_left_out[2] O
*I *514:X O *D sky130_fd_sc_hd__clkbuf_4
*CAP
1 chanx_left_out[2] 0.000365515
2 *514:X 0.000365515
3 chanx_left_out[2] *137:14 6.57682e-05
4 chanx_left_out[2] *154:22 5.62995e-05
5 *490:A chanx_left_out[2] 0.000485993
6 *507:A chanx_left_out[2] 9.70686e-05
*RES
1 *514:X chanx_left_out[2] 23.5857 
*END

*D_NET *18 0.00111311
*CONN
*P chanx_left_out[3] O
*I *515:X O *D sky130_fd_sc_hd__clkbuf_4
*CAP
1 chanx_left_out[3] 0.000505481
2 *515:X 0.000505481
3 chanx_left_out[3] *137:14 0.000102145
*RES
1 *515:X chanx_left_out[3] 23.5857 
*END

*D_NET *19 0.00117324
*CONN
*P chanx_left_out[4] O
*I *516:X O *D sky130_fd_sc_hd__clkbuf_4
*CAP
1 chanx_left_out[4] 0.000475876
2 *516:X 0.000475876
3 chanx_left_out[4] *516:A 3.17163e-05
4 chanx_left_out[4] *517:A 6.05161e-06
5 chanx_left_out[4] *137:14 0.00018372
*RES
1 *516:X chanx_left_out[4] 23.675 
*END

*D_NET *20 0.000967608
*CONN
*P chanx_left_out[5] O
*I *517:X O *D sky130_fd_sc_hd__clkbuf_4
*CAP
1 chanx_left_out[5] 0.000453055
2 *517:X 0.000453055
3 chanx_left_out[5] *517:A 5.62995e-05
4 chanx_left_out[5] *137:14 5.19842e-06
*RES
1 *517:X chanx_left_out[5] 22.05 
*END

*D_NET *21 0.00115401
*CONN
*P chanx_left_out[6] O
*I *518:X O *D sky130_fd_sc_hd__clkbuf_4
*CAP
1 chanx_left_out[6] 0.000499052
2 *518:X 0.000499052
3 chanx_left_out[6] *518:A 0.000100684
4 chanx_left_out[6] *137:14 5.52238e-05
*RES
1 *518:X chanx_left_out[6] 23.675 
*END

*D_NET *22 0.00128379
*CONN
*P chanx_left_out[7] O
*I *519:X O *D sky130_fd_sc_hd__clkbuf_4
*CAP
1 chanx_left_out[7] 0.000439707
2 *519:X 0.000439707
3 chanx_left_out[7] *518:A 6.17687e-05
4 chanx_left_out[7] *520:A 7.1959e-05
5 ccff_tail chanx_left_out[7] 0
6 *489:A chanx_left_out[7] 0.000270653
*RES
1 *519:X chanx_left_out[7] 23.5857 
*END

*D_NET *23 0.00106249
*CONN
*P chanx_left_out[8] O
*I *520:X O *D sky130_fd_sc_hd__clkbuf_4
*CAP
1 chanx_left_out[8] 0.000503885
2 *520:X 0.000503885
3 chanx_left_out[8] *499:A 3.30352e-05
4 chanx_left_out[8] *518:A 9.25014e-06
5 chanx_left_out[8] *520:A 1.24368e-05
6 ccff_tail chanx_left_out[8] 0
7 *489:A chanx_left_out[8] 0
*RES
1 *520:X chanx_left_out[8] 22.8536 
*END

*D_NET *24 0.00298196
*CONN
*P chanx_right_in[0] I
*I *491:A I *D sky130_fd_sc_hd__buf_1
*CAP
1 chanx_right_in[0] 0.00103599
2 *491:A 0.00103599
3 *491:A *470:TE_B 5.01213e-05
4 *491:A *509:A 0
5 *491:A *25:17 0
6 *491:A *131:14 0.000315538
7 *491:A *138:28 0.000329043
8 bottom_grid_top_width_0_height_0_subtile_0__pin_I_0_ *491:A 0
9 bottom_grid_top_width_0_height_0_subtile_0__pin_I_4_ *491:A 0.000215268
*RES
1 chanx_right_in[0] *491:A 33.5419 
*END

*D_NET *25 0.00681681
*CONN
*P chanx_right_in[1] I
*I *492:A I *D sky130_fd_sc_hd__buf_1
*CAP
1 chanx_right_in[1] 0.00187176
2 *492:A 0
3 *25:17 0.00187176
4 *25:17 *393:A 0.000311014
5 *25:17 *415:D 0.00015904
6 *25:17 *470:TE_B 3.2534e-05
7 *25:17 *476:TE_B 0.000447524
8 *25:17 *493:A 0
9 *25:17 *96:10 0.000701507
10 *25:17 *96:70 0.000176059
11 *25:17 *116:16 7.6644e-05
12 *25:17 *137:14 0
13 bottom_grid_top_width_0_height_0_subtile_0__pin_I_0_ *25:17 0.00116897
14 *491:A *25:17 0
*RES
1 chanx_right_in[1] *25:17 42.5123 
2 *25:17 *492:A 9.3 
*END

*D_NET *26 0.00542792
*CONN
*P chanx_right_in[2] I
*I *493:A I *D sky130_fd_sc_hd__buf_1
*CAP
1 chanx_right_in[2] 0.00232271
2 *493:A 0.00232271
3 *493:A *420:CLK 3.01521e-05
4 *493:A *420:D 7.82436e-05
5 *493:A *471:A 0.000111218
6 *493:A *474:A 0.00036704
7 *493:A *478:A 3.82088e-05
8 *493:A *494:A 0
9 *493:A *138:28 0
10 *493:A *140:16 0.000108412
11 *3:20 *493:A 4.92231e-05
12 *25:17 *493:A 0
*RES
1 chanx_right_in[2] *493:A 29.6975 
*END

*D_NET *27 0.00682095
*CONN
*P chanx_right_in[3] I
*I *494:A I *D sky130_fd_sc_hd__buf_1
*CAP
1 chanx_right_in[3] 0.00198009
2 *494:A 0.00198009
3 *494:A *352:A 0.000415163
4 *494:A *409:A 9.90431e-05
5 *494:A *457:Z 4.70078e-05
6 *494:A *474:A 0.000194718
7 *494:A *510:A 0.0001833
8 *494:A *28:23 0.000240064
9 *494:A *46:30 0.000570459
10 *494:A *75:32 0
11 *494:A *167:22 4.15526e-05
12 *494:A *175:26 0.00106946
13 *493:A *494:A 0
*RES
1 chanx_right_in[3] *494:A 28.9998 
*END

*D_NET *28 0.0111245
*CONN
*P chanx_right_in[4] I
*I *495:A I *D sky130_fd_sc_hd__buf_1
*I *193:DIODE I *D sky130_fd_sc_hd__diode_2
*CAP
1 chanx_right_in[4] 0.00319819
2 *495:A 2.06931e-05
3 *193:DIODE 6.19659e-05
4 *28:23 0.00328085
5 *193:DIODE *142:16 0.000138605
6 *495:A *411:A 3.08382e-06
7 *28:23 *352:A 0.00264607
8 *28:23 *411:A 5.45307e-05
9 *28:23 *412:A 0.000901257
10 *28:23 *429:A 3.14179e-05
11 *28:23 *462:TE_B 0.000245161
12 *28:23 *478:A 1.39747e-05
13 *28:23 *496:A 0
14 *28:23 *118:20 0
15 *28:23 *123:12 0.000148426
16 *28:23 *142:16 9.99853e-05
17 *28:23 *175:26 1.94945e-05
18 *494:A *28:23 0.000240064
19 *501:A *28:23 2.07772e-05
*RES
1 chanx_right_in[4] *28:23 22.1354 
2 *28:23 *193:DIODE 10.6571 
3 *28:23 *495:A 9.72857 
*END

*D_NET *29 0.00517581
*CONN
*P chanx_right_in[5] I
*I *496:A I *D sky130_fd_sc_hd__buf_1
*CAP
1 chanx_right_in[5] 0.0022524
2 *496:A 0.0022524
3 *496:A *395:A 1.3701e-05
4 *496:A *412:A 0
5 *496:A *441:TE_B 0
6 *496:A *446:Z 0.000218455
7 *496:A *452:A 5.65955e-05
8 *496:A *472:A 0.000139913
9 *496:A *472:TE_B 2.47508e-05
10 *496:A *481:A 3.34672e-05
11 *496:A *497:A 0
12 *496:A *58:24 5.92112e-05
13 *496:A *86:32 0
14 *496:A *115:8 0
15 *496:A *116:16 5.49489e-05
16 *496:A *137:14 4.1331e-06
17 *496:A *137:30 6.58289e-05
18 *28:23 *496:A 0
*RES
1 chanx_right_in[5] *496:A 35.4067 
*END

*D_NET *30 0.000773526
*CONN
*P chanx_right_in[6] I
*I *497:A I *D sky130_fd_sc_hd__clkbuf_1
*CAP
1 chanx_right_in[6] 0.000386763
2 *497:A 0.000386763
3 *497:A *498:A 0
4 *497:A *137:30 0
5 *497:A *151:31 0
6 *496:A *497:A 0
*RES
1 chanx_right_in[6] *497:A 21.7274 
*END

*D_NET *31 0.00154556
*CONN
*P chanx_right_in[7] I
*I *498:A I *D sky130_fd_sc_hd__clkbuf_1
*CAP
1 chanx_right_in[7] 0.000609191
2 *498:A 0.000609191
3 *498:A *394:A 9.83388e-05
4 *498:A *424:A 1.8461e-05
5 *498:A *446:A 5.20669e-05
6 *498:A *499:A 0
7 *498:A *518:A 0.00015831
8 *497:A *498:A 0
*RES
1 chanx_right_in[7] *498:A 21.7517 
*END

*D_NET *32 0.00155138
*CONN
*P chanx_right_in[8] I
*I *499:A I *D sky130_fd_sc_hd__buf_1
*CAP
1 chanx_right_in[8] 0.000708705
2 *499:A 0.000708705
3 *499:A top_grid_bottom_width_0_height_0_subtile_0__pin_outpad_0_ 0
4 *499:A *518:A 0
5 *499:A *520:A 0.000100931
6 chanx_left_out[8] *499:A 3.30352e-05
7 *489:A *499:A 0
8 *498:A *499:A 0
*RES
1 chanx_right_in[8] *499:A 24.5157 
*END

*D_NET *33 0.00218927
*CONN
*P chanx_right_out[0] O
*I *521:X O *D sky130_fd_sc_hd__clkbuf_4
*CAP
1 chanx_right_out[0] 0.00108925
2 *521:X 0.00108925
3 chanx_right_out[0] chanx_right_out[1] 0
4 chanx_right_out[0] *521:A 1.07719e-05
*RES
1 *521:X chanx_right_out[0] 33.4429 
*END

*D_NET *34 0.00230877
*CONN
*P chanx_right_out[1] O
*I *522:X O *D sky130_fd_sc_hd__clkbuf_4
*CAP
1 chanx_right_out[1] 0.000853676
2 *522:X 0.000853676
3 chanx_right_out[1] chanx_right_out[2] 0
4 chanx_right_out[1] *522:A 1.07719e-05
5 chanx_right_out[1] *523:A 0
6 chanx_right_out[1] *84:20 0.000129523
7 chanx_right_out[1] *142:16 0.000461121
8 chanx_right_out[0] chanx_right_out[1] 0
*RES
1 *522:X chanx_right_out[1] 31.7643 
*END

*D_NET *35 0.000842499
*CONN
*P chanx_right_out[2] O
*I *523:X O *D sky130_fd_sc_hd__clkbuf_4
*CAP
1 chanx_right_out[2] 0.00042125
2 *523:X 0.00042125
3 chanx_right_out[2] chanx_right_out[3] 0
4 chanx_right_out[2] *88:10 0
5 chanx_right_out[1] chanx_right_out[2] 0
*RES
1 *523:X chanx_right_out[2] 22.0679 
*END

*D_NET *36 0.000873117
*CONN
*P chanx_right_out[3] O
*I *524:X O *D sky130_fd_sc_hd__clkbuf_4
*CAP
1 chanx_right_out[3] 0.000436558
2 *524:X 0.000436558
3 chanx_right_out[3] chanx_right_out[4] 0
4 chanx_right_out[3] *88:10 0
5 chanx_right_out[2] chanx_right_out[3] 0
*RES
1 *524:X chanx_right_out[3] 21.6393 
*END

*D_NET *37 0.00114657
*CONN
*P chanx_right_out[4] O
*I *525:X O *D sky130_fd_sc_hd__clkbuf_4
*CAP
1 chanx_right_out[4] 0.000536416
2 *525:X 0.000536416
3 chanx_right_out[4] chanx_right_out[5] 0
4 chanx_right_out[4] *455:A 1.74352e-05
5 chanx_right_out[4] *525:A 5.62995e-05
6 chanx_right_out[3] chanx_right_out[4] 0
*RES
1 *525:X chanx_right_out[4] 23.2464 
*END

*D_NET *38 0.000810692
*CONN
*P chanx_right_out[5] O
*I *526:X O *D sky130_fd_sc_hd__clkbuf_4
*CAP
1 chanx_right_out[5] 0.000405346
2 *526:X 0.000405346
3 chanx_right_out[5] chanx_right_out[6] 0
4 chanx_right_out[4] chanx_right_out[5] 0
*RES
1 *526:X chanx_right_out[5] 21.2286 
*END

*D_NET *39 0.00338159
*CONN
*P chanx_right_out[6] O
*I *527:X O *D sky130_fd_sc_hd__clkbuf_4
*CAP
1 chanx_right_out[6] 0.000986128
2 *527:X 0.000986128
3 chanx_right_out[6] chanx_right_out[7] 0
4 chanx_right_out[6] *354:A 0.00014059
5 chanx_right_out[6] *355:A 0.000502919
6 chanx_right_out[6] *420:D 0.000143375
7 chanx_right_out[6] *454:A 0
8 chanx_right_out[6] *454:Z 0.000395312
9 chanx_right_out[6] *477:A 0
10 chanx_right_out[6] *480:A 5.52302e-05
11 chanx_right_out[6] *74:28 5.00707e-05
12 chanx_right_out[6] *127:43 0.000121841
13 chanx_right_out[5] chanx_right_out[6] 0
*RES
1 *527:X chanx_right_out[6] 36.7107 
*END

*D_NET *40 0.000830583
*CONN
*P chanx_right_out[7] O
*I *528:X O *D sky130_fd_sc_hd__clkbuf_4
*CAP
1 chanx_right_out[7] 0.000328427
2 *528:X 0.000328427
3 chanx_right_out[7] chanx_right_out[8] 0
4 chanx_right_out[7] *477:A 0.000173728
5 chanx_right_out[6] chanx_right_out[7] 0
*RES
1 *528:X chanx_right_out[7] 21.3536 
*END

*D_NET *41 0.00297359
*CONN
*P chanx_right_out[8] O
*I *529:X O *D sky130_fd_sc_hd__clkbuf_4
*CAP
1 chanx_right_out[8] 0.00118909
2 *529:X 0.00118909
3 chanx_right_out[8] *471:A 3.78126e-05
4 chanx_right_out[8] *471:TE_B 0.000118986
5 chanx_right_out[8] *103:14 0.000139631
6 bottom_grid_top_width_0_height_0_subtile_0__pin_I_0_ chanx_right_out[8] 0
7 chanx_right_out[7] chanx_right_out[8] 0
8 *3:20 chanx_right_out[8] 0.000298992
*RES
1 *529:X chanx_right_out[8] 32.9429 
*END

*D_NET *42 0.00645454
*CONN
*P prog_clk I
*I *477:A I *D sky130_fd_sc_hd__clkbuf_16
*CAP
1 prog_clk 0.0021979
2 *477:A 0.0021979
3 *477:A *399:A 0.000112404
4 *477:A *443:Z 5.88913e-05
5 *477:A *451:A 2.32591e-05
6 *477:A *74:28 2.59093e-05
7 *477:A *112:8 9.46929e-05
8 *477:A *138:28 0.00062807
9 *477:A *170:12 0.000941781
10 chanx_right_out[6] *477:A 0
11 chanx_right_out[7] *477:A 0.000173728
12 *500:A *477:A 0
*RES
1 prog_clk *477:A 40.767 
*END

*D_NET *43 0.00194027
*CONN
*P top_grid_bottom_width_0_height_0_subtile_0__pin_outpad_0_ O
*I *530:X O *D sky130_fd_sc_hd__clkbuf_4
*CAP
1 top_grid_bottom_width_0_height_0_subtile_0__pin_outpad_0_ 0.0008893
2 *530:X 0.0008893
3 top_grid_bottom_width_0_height_0_subtile_0__pin_outpad_0_ *350:A 9.63392e-05
4 top_grid_bottom_width_0_height_0_subtile_0__pin_outpad_0_ *423:A 2.286e-05
5 ccff_tail top_grid_bottom_width_0_height_0_subtile_0__pin_outpad_0_ 4.24707e-05
6 *499:A top_grid_bottom_width_0_height_0_subtile_0__pin_outpad_0_ 0
*RES
1 *530:X top_grid_bottom_width_0_height_0_subtile_0__pin_outpad_0_ 30.8714 
*END

*D_NET *46 0.00613021
*CONN
*I *369:A I *D sky130_fd_sc_hd__clkbuf_1
*I *368:X O *D sky130_fd_sc_hd__clkbuf_1
*CAP
1 *369:A 0
2 *368:X 0.00259809
3 *46:30 0.00259809
4 *46:30 *352:A 0.000171662
5 *46:30 *358:A 2.61983e-05
6 *46:30 *375:A 1.21955e-05
7 *46:30 *457:Z 3.18942e-05
8 *46:30 *510:A 1.39726e-05
9 *46:30 *95:10 0
10 *46:30 *165:18 5.42817e-05
11 *46:30 *175:26 5.33608e-05
12 *494:A *46:30 0.000570459
*RES
1 *368:X *46:30 45 
2 *46:30 *369:A 9.3 
*END

*D_NET *47 0.000548166
*CONN
*I *373:A I *D sky130_fd_sc_hd__clkbuf_1
*I *372:X O *D sky130_fd_sc_hd__clkbuf_1
*CAP
1 *373:A 0.000111505
2 *372:X 0.000111505
3 *373:A *372:A 9.41642e-05
4 *373:A *458:TE_B 9.74665e-05
5 *373:A *75:32 7.13996e-05
6 *373:A *100:63 3.38774e-05
7 *373:A *101:51 3.99614e-06
8 *373:A *158:14 2.42516e-05
*RES
1 *372:X *373:A 21.6357 
*END

*D_NET *48 0.00267017
*CONN
*I *375:A I *D sky130_fd_sc_hd__clkbuf_1
*I *374:X O *D sky130_fd_sc_hd__clkbuf_1
*CAP
1 *375:A 0.000691183
2 *374:X 0.000691183
3 *375:A *364:A 0.000311887
4 *375:A *101:34 8.6229e-06
5 *375:A *142:20 8.86413e-05
6 *375:A *154:22 0.000153547
7 *375:A *187:10 0.000393433
8 *501:A *375:A 0.000319476
9 *46:30 *375:A 1.21955e-05
*RES
1 *374:X *375:A 39.8679 
*END

*D_NET *49 0.0017435
*CONN
*I *380:A I *D sky130_fd_sc_hd__clkbuf_1
*I *379:X O *D sky130_fd_sc_hd__clkbuf_1
*CAP
1 *380:A 0.000376413
2 *379:X 0.000376413
3 *380:A *377:A 2.2351e-05
4 *380:A *382:A 9.36067e-05
5 *380:A *413:CLK 1.33343e-05
6 *380:A *414:D 2.87555e-06
7 *380:A *447:TE_B 4.15914e-05
8 *380:A *97:50 9.41642e-05
9 *380:A *98:14 0.00021813
10 *380:A *170:12 0.00050462
*RES
1 *379:X *380:A 36.6893 
*END

*D_NET *50 0.000323326
*CONN
*I *383:A I *D sky130_fd_sc_hd__clkbuf_1
*I *382:X O *D sky130_fd_sc_hd__clkbuf_1
*CAP
1 *383:A 0.000116773
2 *382:X 0.000116773
3 *383:A *427:A 5.49258e-05
4 *383:A *428:A 0
5 *383:A *142:20 3.4855e-05
*RES
1 *382:X *383:A 30.0286 
*END

*D_NET *51 0.000596297
*CONN
*I *385:A I *D sky130_fd_sc_hd__clkbuf_1
*I *384:X O *D sky130_fd_sc_hd__clkbuf_1
*CAP
1 *385:A 0.000134539
2 *384:X 0.000134539
3 *385:A *376:A 0.000106715
4 *385:A *413:CLK 3.57366e-05
5 *385:A *97:20 0.000184767
*RES
1 *384:X *385:A 22.2429 
*END

*D_NET *52 0.0012772
*CONN