*SPEF "ieee 1481-1999"
*DESIGN "cby_0__1_"
*DATE "11:11:11 Fri 11 11, 1111"
*VENDOR "OpenRCX"
*PROGRAM "Parallel Extraction"
*VERSION "1.0"
*DESIGN_FLOW "NAME_SCOPE LOCAL" "PIN_CAP NONE"
*DIVIDER /
*DELIMITER :
*BUS_DELIMITER []
*T_UNIT 1 NS
*C_UNIT 1 PF
*R_UNIT 1 OHM
*L_UNIT 1 HENRY

*NAME_MAP
*1 ccff_head
*2 ccff_tail
*3 chany_bottom_in[0]
*4 chany_bottom_in[1]
*5 chany_bottom_in[2]
*6 chany_bottom_in[3]
*7 chany_bottom_in[4]
*8 chany_bottom_in[5]
*9 chany_bottom_in[6]
*10 chany_bottom_in[7]
*11 chany_bottom_in[8]
*12 chany_bottom_out[0]
*13 chany_bottom_out[1]
*14 chany_bottom_out[2]
*15 chany_bottom_out[3]
*16 chany_bottom_out[4]
*17 chany_bottom_out[5]
*18 chany_bottom_out[6]
*19 chany_bottom_out[7]
*20 chany_bottom_out[8]
*21 chany_top_in[0]
*22 chany_top_in[1]
*23 chany_top_in[2]
*24 chany_top_in[3]
*25 chany_top_in[4]
*26 chany_top_in[5]
*27 chany_top_in[6]
*28 chany_top_in[7]
*29 chany_top_in[8]
*30 chany_top_out[0]
*31 chany_top_out[1]
*32 chany_top_out[2]
*33 chany_top_out[3]
*34 chany_top_out[4]
*35 chany_top_out[5]
*36 chany_top_out[6]
*37 chany_top_out[7]
*38 chany_top_out[8]
*39 left_grid_right_width_0_height_0_subtile_0__pin_outpad_0_
*40 prog_clk
*41 right_grid_left_width_0_height_0_subtile_0__pin_I_3_
*42 right_grid_left_width_0_height_0_subtile_0__pin_I_7_
*45 _000_
*46 _001_
*47 _002_
*48 _003_
*49 _004_
*50 _005_
*51 _006_
*52 _007_
*53 _008_
*54 _009_
*55 _010_
*56 _011_
*57 _012_
*58 _013_
*59 _014_
*60 _015_
*61 _016_
*62 _017_
*63 _018_
*64 _019_
*65 _020_
*66 _021_
*67 _022_
*68 _023_
*69 _024_
*70 _025_
*71 _026_
*72 _027_
*73 _028_
*74 _029_
*75 _030_
*76 _031_
*77 _032_
*78 _033_
*79 _034_
*80 _035_
*81 _036_
*82 _037_
*83 _038_
*84 _039_
*85 _040_
*86 _041_
*87 clknet_0_prog_clk
*88 clknet_1_0__leaf_prog_clk
*89 clknet_1_1__leaf_prog_clk
*90 mem_left_ipin_0\.DFF_0_\.Q
*91 mem_left_ipin_0\.DFF_1_\.Q
*92 mem_left_ipin_0\.DFF_2_\.Q
*93 mem_left_ipin_1\.DFF_0_\.Q
*94 mem_left_ipin_1\.DFF_1_\.Q
*95 mem_right_ipin_0\.DFF_0_\.Q
*96 mem_right_ipin_0\.DFF_1_\.Q
*97 mux_left_ipin_0\.INVTX1_0_\.out
*98 mux_left_ipin_0\.INVTX1_1_\.out
*99 mux_left_ipin_0\.INVTX1_2_\.out
*100 mux_left_ipin_0\.INVTX1_3_\.out
*101 mux_left_ipin_0\.INVTX1_4_\.out
*102 mux_left_ipin_0\.INVTX1_5_\.out
*103 mux_left_ipin_0\.mux_l1_in_0_\.TGATE_0_\.out
*104 mux_left_ipin_0\.mux_l1_in_1_\.TGATE_0_\.out
*105 mux_left_ipin_0\.mux_l1_in_2_\.TGATE_0_\.out
*106 mux_left_ipin_0\.mux_l2_in_0_\.TGATE_0_\.out
*107 mux_left_ipin_0\.mux_l2_in_1_\.TGATE_0_\.out
*108 mux_left_ipin_0\.mux_l3_in_0_\.TGATE_0_\.out
*109 mux_left_ipin_1\.INVTX1_0_\.out
*110 mux_left_ipin_1\.INVTX1_1_\.out
*111 mux_left_ipin_1\.mux_l1_in_0_\.TGATE_0_\.out
*112 mux_left_ipin_1\.mux_l2_in_0_\.TGATE_0_\.out
*113 mux_right_ipin_0\.INVTX1_2_\.out
*114 mux_right_ipin_0\.INVTX1_3_\.out
*115 mux_right_ipin_0\.INVTX1_4_\.out
*116 mux_right_ipin_0\.INVTX1_5_\.out
*117 mux_right_ipin_0\.mux_l1_in_0_\.TGATE_0_\.out
*118 mux_right_ipin_0\.mux_l1_in_1_\.TGATE_0_\.out
*119 mux_right_ipin_0\.mux_l1_in_2_\.TGATE_0_\.out
*120 mux_right_ipin_0\.mux_l2_in_0_\.TGATE_0_\.out
*121 mux_right_ipin_0\.mux_l2_in_1_\.TGATE_0_\.out
*122 mux_right_ipin_0\.mux_l3_in_0_\.TGATE_0_\.out
*123 net1
*124 net10
*125 net11
*126 net12
*127 net13
*128 net14
*129 net15
*130 net16
*131 net17
*132 net18
*133 net19
*134 net2
*135 net20
*136 net21
*137 net22
*138 net23
*139 net24
*140 net25
*141 net26
*142 net27
*143 net28
*144 net29
*145 net3
*146 net30
*147 net31
*148 net32
*149 net33
*150 net34
*151 net35
*152 net36
*153 net37
*154 net38
*155 net39
*156 net4
*157 net40
*158 net41
*159 net42
*160 net43
*161 net44
*162 net45
*163 net46
*164 net47
*165 net48
*166 net49
*167 net5
*168 net50
*169 net51
*170 net6
*171 net7
*172 net8
*173 net9
*174 FILLER_0_0_11
*175 FILLER_0_0_19
*176 FILLER_0_0_24
*177 FILLER_0_0_29
*178 FILLER_0_0_33
*179 FILLER_0_0_37
*180 FILLER_0_0_45
*181 FILLER_0_0_50
*182 FILLER_0_0_57
*183 FILLER_0_0_6
*184 FILLER_0_0_63
*185 FILLER_0_0_71
*186 FILLER_0_0_76
*187 FILLER_0_0_85
*188 FILLER_0_0_89
*189 FILLER_0_10_11
*190 FILLER_0_10_23
*191 FILLER_0_10_3
*192 FILLER_0_10_62
*193 FILLER_0_10_7
*194 FILLER_0_10_71
*195 FILLER_0_10_83
*196 FILLER_0_10_93
*197 FILLER_0_11_12
*198 FILLER_0_11_24
*199 FILLER_0_11_39
*200 FILLER_0_11_54
*201 FILLER_0_11_57
*202 FILLER_0_11_63
*203 FILLER_0_11_87
*204 FILLER_0_11_93
*205 FILLER_0_12_20
*206 FILLER_0_12_24
*207 FILLER_0_12_40
*208 FILLER_0_12_52
*209 FILLER_0_12_64
*210 FILLER_0_12_76
*211 FILLER_0_12_85
*212 FILLER_0_12_9
*213 FILLER_0_13_101
*214 FILLER_0_13_23
*215 FILLER_0_13_29
*216 FILLER_0_13_3
*217 FILLER_0_13_37
*218 FILLER_0_13_42
*219 FILLER_0_13_50
*220 FILLER_0_13_57
*221 FILLER_0_13_65
*222 FILLER_0_13_70
*223 FILLER_0_13_78
*224 FILLER_0_13_85
*225 FILLER_0_13_91
*226 FILLER_0_1_15
*227 FILLER_0_1_23
*228 FILLER_0_1_29
*229 FILLER_0_1_3
*230 FILLER_0_1_36
*231 FILLER_0_1_48
*232 FILLER_0_1_57
*233 FILLER_0_1_69
*234 FILLER_0_1_81
*235 FILLER_0_1_89
*236 FILLER_0_1_95
*237 FILLER_0_2_16
*238 FILLER_0_2_29
*239 FILLER_0_2_41
*240 FILLER_0_2_53
*241 FILLER_0_2_65
*242 FILLER_0_2_72
*243 FILLER_0_2_85
*244 FILLER_0_2_9
*245 FILLER_0_2_93
*246 FILLER_0_2_98
*247 FILLER_0_3_102
*248 FILLER_0_3_18
*249 FILLER_0_3_30
*250 FILLER_0_3_39
*251 FILLER_0_3_51
*252 FILLER_0_3_55
*253 FILLER_0_3_57
*254 FILLER_0_3_76
*255 FILLER_0_3_88
*256 FILLER_0_4_12
*257 FILLER_0_4_16
*258 FILLER_0_4_23
*259 FILLER_0_4_48
*260 FILLER_0_4_82
*261 FILLER_0_4_97
*262 FILLER_0_5_57
*263 FILLER_0_5_6
*264 FILLER_0_5_61
*265 FILLER_0_5_94
*266 FILLER_0_6_27
*267 FILLER_0_6_65
*268 FILLER_0_6_83
*269 FILLER_0_6_97
*270 FILLER_0_7_3
*271 FILLER_0_7_57
*272 FILLER_0_7_98
*273 FILLER_0_8_102
*274 FILLER_0_8_29
*275 FILLER_0_8_62
*276 FILLER_0_8_67
*277 FILLER_0_8_74
*278 FILLER_0_8_85
*279 FILLER_0_9_102
*280 FILLER_0_9_14
*281 FILLER_0_9_42
*282 FILLER_0_9_55
*283 FILLER_0_9_60
*284 FILLER_0_9_9
*285 PHY_0
*286 PHY_1
*287 PHY_10
*288 PHY_11
*289 PHY_12
*290 PHY_13
*291 PHY_14
*292 PHY_15
*293 PHY_16
*294 PHY_17
*295 PHY_18
*296 PHY_19
*297 PHY_2
*298 PHY_20
*299 PHY_21
*300 PHY_22
*301 PHY_23
*302 PHY_24
*303 PHY_25
*304 PHY_26
*305 PHY_27
*306 PHY_3
*307 PHY_4
*308 PHY_5
*309 PHY_6
*310 PHY_7
*311 PHY_8
*312 PHY_9
*313 TAP_28
*314 TAP_29
*315 TAP_30
*316 TAP_31
*317 TAP_32
*318 TAP_33
*319 TAP_34
*320 TAP_35
*321 TAP_36
*322 TAP_37
*323 TAP_38
*324 TAP_39
*325 TAP_40
*326 TAP_41
*327 TAP_42
*328 TAP_43
*329 TAP_44
*330 TAP_45
*331 TAP_46
*332 TAP_47
*333 TAP_48
*334 TAP_49
*335 TAP_50
*336 TAP_51
*337 _045_
*338 _046_
*339 _047_
*340 _048_
*341 _049_
*342 _050_
*343 _051_
*344 _052_
*345 _053_
*346 _054_
*347 _055_
*348 _056_
*349 _057_
*350 _058_
*351 _059_
*352 _060_
*353 _061_
*354 _062_
*355 _063_
*356 _064_
*357 _065_
*358 _066_
*359 _067_
*360 _068_
*361 _069_
*362 _070_
*363 _071_
*364 _072_
*365 _073_
*366 _074_
*367 _075_
*368 _076_
*369 _077_
*370 _078_
*371 _079_
*372 _080_
*373 _081_
*374 _082_
*375 _083_
*376 _084_
*377 _085_
*378 _086_
*379 _087_
*380 _088_
*381 _089_
*382 _090_
*383 _091_
*384 _092_
*385 _093_
*386 _094_
*387 _095_
*388 _096_
*389 _097_
*390 _098_
*391 _099_
*392 _100_
*393 _101_
*394 _102_
*395 _103_
*396 _104_
*397 _105_
*398 _106_
*399 _107_
*400 _108_
*401 _109_
*402 _113_
*403 _114_
*404 _115_
*405 _116_
*406 _117_
*407 _118_
*408 _119_
*409 _120_
*410 _121_
*411 _122_
*412 _123_
*413 _124_
*414 _125_
*415 _126_
*416 _127_
*417 _128_
*418 _129_
*419 _130_
*420 _131_
*421 _131__42
*422 _132_
*423 _133_
*424 _134_
*425 _135_
*426 _136_
*427 _137_
*428 _138_
*429 _139_
*430 _140_
*431 _141_
*432 _142_
*433 _143_
*434 _144_
*435 _144__43
*436 _145_
*437 _146_
*438 _147_
*439 _148_
*440 _149_
*441 _150_
*442 _151_
*443 _152_
*444 _153_
*445 _154_
*446 _155_
*447 _155__44
*448 _156_
*449 _157_
*450 _158_
*451 clkbuf_0_prog_clk
*452 clkbuf_1_0__f_prog_clk
*453 clkbuf_1_1__f_prog_clk
*454 hold1
*455 hold2
*456 hold3
*457 hold4
*458 hold5
*459 hold6
*460 hold7
*461 input1
*462 input10
*463 input11
*464 input12
*465 input13
*466 input14
*467 input15
*468 input16
*469 input17
*470 input18
*471 input19
*472 input2
*473 input3
*474 input4
*475 input5
*476 input6
*477 input7
*478 input8
*479 input9
*480 output20
*481 output21
*482 output22
*483 output23
*484 output24
*485 output25
*486 output26
*487 output27
*488 output28
*489 output29
*490 output30
*491 output31
*492 output32
*493 output33
*494 output34
*495 output35
*496 output36
*497 output37
*498 output38
*499 output39
*500 output40
*501 output41

*PORTS
ccff_head I
ccff_tail O
chany_bottom_in[0] I
chany_bottom_in[1] I
chany_bottom_in[2] I
chany_bottom_in[3] I
chany_bottom_in[4] I
chany_bottom_in[5] I
chany_bottom_in[6] I
chany_bottom_in[7] I
chany_bottom_in[8] I
chany_bottom_out[0] O
chany_bottom_out[1] O
chany_bottom_out[2] O
chany_bottom_out[3] O
chany_bottom_out[4] O
chany_bottom_out[5] O
chany_bottom_out[6] O
chany_bottom_out[7] O
chany_bottom_out[8] O
chany_top_in[0] I
chany_top_in[1] I
chany_top_in[2] I
chany_top_in[3] I
chany_top_in[4] I
chany_top_in[5] I
chany_top_in[6] I
chany_top_in[7] I
chany_top_in[8] I
chany_top_out[0] O
chany_top_out[1] O
chany_top_out[2] O
chany_top_out[3] O
chany_top_out[4] O
chany_top_out[5] O
chany_top_out[6] O
chany_top_out[7] O
chany_top_out[8] O
left_grid_right_width_0_height_0_subtile_0__pin_outpad_0_ O
prog_clk I
right_grid_left_width_0_height_0_subtile_0__pin_I_3_ O
right_grid_left_width_0_height_0_subtile_0__pin_I_7_ O

*D_NET *1 0.00178355
*CONN
*P ccff_head I
*I *461:A I *D sky130_fd_sc_hd__clkbuf_1
*CAP
1 ccff_head 0.000715041
2 *461:A 0.000715041
3 *461:A ccff_tail 0
4 *461:A right_grid_left_width_0_height_0_subtile_0__pin_I_7_ 9.83108e-05
5 *461:A *471:A 0.00019828
6 *461:A *501:A 0
7 *461:A *133:14 5.68722e-05
*RES
1 ccff_head *461:A 25.674 
*END

*D_NET *2 0.00117333
*CONN
*P ccff_tail O
*I *480:X O *D sky130_fd_sc_hd__clkbuf_4
*CAP
1 ccff_tail 0.000586664
2 *480:X 0.000586664
3 ccff_tail *470:A 0
4 ccff_tail *471:A 0
5 *461:A ccff_tail 0
*RES
1 *480:X ccff_tail 23.0527 
*END

*D_NET *3 0.00117674
*CONN
*P chany_bottom_in[0] I
*I *472:A I *D sky130_fd_sc_hd__buf_1
*CAP
1 chany_bottom_in[0] 0.000588371
2 *472:A 0.000588371
*RES
1 chany_bottom_in[0] *472:A 25.1214 
*END

*D_NET *4 0.000857595
*CONN
*P chany_bottom_in[1] I
*I *473:A I *D sky130_fd_sc_hd__buf_1
*CAP
1 chany_bottom_in[1] 0.000428798
2 *473:A 0.000428798
*RES
1 chany_bottom_in[1] *473:A 21.9607 
*END

*D_NET *5 0.00083947
*CONN
*P chany_bottom_in[2] I
*I *474:A I *D sky130_fd_sc_hd__buf_1
*CAP
1 chany_bottom_in[2] 0.000419735
2 *474:A 0.000419735
*RES
1 chany_bottom_in[2] *474:A 21.9607 
*END

*D_NET *6 0.00100138
*CONN
*P chany_bottom_in[3] I
*I *475:A I *D sky130_fd_sc_hd__clkbuf_1
*CAP
1 chany_bottom_in[3] 0.000456618
2 *475:A 0.000456618
3 *475:A *451:A 2.04825e-05
4 *475:A *134:12 5.52238e-05
5 *475:A *147:16 1.24368e-05
*RES
1 chany_bottom_in[3] *475:A 22.9071 
*END

*D_NET *7 0.000826448
*CONN
*P chany_bottom_in[4] I
*I *476:A I *D sky130_fd_sc_hd__buf_1
*CAP
1 chany_bottom_in[4] 0.000413224
2 *476:A 0.000413224
*RES
1 chany_bottom_in[4] *476:A 21.9607 
*END

*D_NET *8 0.000827684
*CONN
*P chany_bottom_in[5] I
*I *477:A I *D sky130_fd_sc_hd__clkbuf_1
*CAP
1 chany_bottom_in[5] 0.000407872
2 *477:A 0.000407872
3 *477:A *134:12 1.19402e-05
*RES
1 chany_bottom_in[5] *477:A 21.9607 
*END

*D_NET *9 0.000818127
*CONN
*P chany_bottom_in[6] I
*I *478:A I *D sky130_fd_sc_hd__buf_1
*CAP
1 chany_bottom_in[6] 0.000409064
2 *478:A 0.000409064
3 *478:A *134:12 0
*RES
1 chany_bottom_in[6] *478:A 21.9607 
*END

*D_NET *10 0.000812096
*CONN
*P chany_bottom_in[7] I
*I *479:A I *D sky130_fd_sc_hd__clkbuf_1
*CAP
1 chany_bottom_in[7] 0.000406048
2 *479:A 0.000406048
3 *479:A chany_top_out[1] 0
*RES
1 chany_bottom_in[7] *479:A 21.8357 
*END

*D_NET *11 0.00136535
*CONN
*P chany_bottom_in[8] I
*I *462:A I *D sky130_fd_sc_hd__buf_1
*CAP
1 chany_bottom_in[8] 0.000542033
2 *462:A 0.000542033
3 *462:A chany_top_out[0] 0
4 *462:A chany_top_out[1] 0.000113095
5 *462:A *490:A 5.52238e-05
6 *462:A *124:14 3.13523e-05
7 *462:A *147:16 8.16102e-05
*RES
1 chany_bottom_in[8] *462:A 25.0857 
*END

*D_NET *12 0.00064576
*CONN
*P chany_bottom_out[0] O
*I *481:X O *D sky130_fd_sc_hd__clkbuf_4
*CAP
1 chany_bottom_out[0] 0.00032288
2 *481:X 0.00032288
3 chany_bottom_out[0] chany_bottom_out[1] 0
4 chany_bottom_out[0] *451:A 0
*RES
1 *481:X chany_bottom_out[0] 21.4589 
*END

*D_NET *13 0.000718401
*CONN
*P chany_bottom_out[1] O
*I *482:X O *D sky130_fd_sc_hd__clkbuf_4
*CAP
1 chany_bottom_out[1] 0.000340668
2 *482:X 0.000340668
3 chany_bottom_out[1] chany_bottom_out[2] 0
4 chany_bottom_out[1] *482:A 5.19842e-06
5 chany_bottom_out[1] *110:14 3.18676e-05
6 chany_bottom_out[0] chany_bottom_out[1] 0
*RES
1 *482:X chany_bottom_out[1] 20.7625 
*END

*D_NET *14 0.0010764
*CONN
*P chany_bottom_out[2] O
*I *483:X O *D sky130_fd_sc_hd__clkbuf_4
*CAP
1 chany_bottom_out[2] 0.000444902
2 *483:X 0.000444902
3 chany_bottom_out[2] chany_bottom_out[3] 0.000135011
4 chany_bottom_out[2] *409:A 3.17016e-05
5 chany_bottom_out[2] *482:A 0
6 chany_bottom_out[2] *126:32 1.98839e-05
7 chany_bottom_out[1] chany_bottom_out[2] 0
*RES
1 *483:X chany_bottom_out[2] 23.8339 
*END

*D_NET *15 0.00104036
*CONN
*P chany_bottom_out[3] O
*I *484:X O *D sky130_fd_sc_hd__clkbuf_4
*CAP
1 chany_bottom_out[3] 0.000452673
2 *484:X 0.000452673
3 chany_bottom_out[3] chany_bottom_out[4] 0
4 chany_bottom_out[3] *482:A 0
5 chany_bottom_out[3] *110:14 0
6 chany_bottom_out[2] chany_bottom_out[3] 0.000135011
*RES
1 *484:X chany_bottom_out[3] 23.0489 
*END

*D_NET *16 0.000636695
*CONN
*P chany_bottom_out[4] O
*I *485:X O *D sky130_fd_sc_hd__clkbuf_4
*CAP
1 chany_bottom_out[4] 0.000318348
2 *485:X 0.000318348
3 chany_bottom_out[4] chany_bottom_out[5] 0
4 chany_bottom_out[4] *344:A 0
5 chany_bottom_out[3] chany_bottom_out[4] 0
*RES
1 *485:X chany_bottom_out[4] 21.4589 
*END

*D_NET *17 0.000616846
*CONN
*P chany_bottom_out[5] O
*I *486:X O *D sky130_fd_sc_hd__clkbuf_4
*CAP
1 chany_bottom_out[5] 0.000308423
2 *486:X 0.000308423
3 chany_bottom_out[5] chany_bottom_out[6] 0
4 chany_bottom_out[4] chany_bottom_out[5] 0
*RES
1 *486:X chany_bottom_out[5] 20.3518 
*END

*D_NET *18 0.000690845
*CONN
*P chany_bottom_out[6] O
*I *487:X O *D sky130_fd_sc_hd__clkbuf_4
*CAP
1 chany_bottom_out[6] 0.000330779
2 *487:X 0.000330779
3 chany_bottom_out[6] chany_bottom_out[7] 2.92862e-05
4 chany_bottom_out[6] chany_bottom_out[8] 0
5 chany_bottom_out[6] *484:A 0
6 chany_bottom_out[5] chany_bottom_out[6] 0
*RES
1 *487:X chany_bottom_out[6] 18.8056 
*END

*D_NET *19 0.000530999
*CONN
*P chany_bottom_out[7] O
*I *488:X O *D sky130_fd_sc_hd__clkbuf_4
*CAP
1 chany_bottom_out[7] 0.000250856
2 *488:X 0.000250856
3 chany_bottom_out[7] chany_bottom_out[8] 0
4 chany_bottom_out[7] *463:A 0
5 chany_bottom_out[7] *126:32 0
6 chany_bottom_out[6] chany_bottom_out[7] 2.92862e-05
*RES
1 *488:X chany_bottom_out[7] 20.2447 
*END

*D_NET *20 0.0016308
*CONN
*P chany_bottom_out[8] O
*I *489:X O *D sky130_fd_sc_hd__clkbuf_4
*CAP
1 chany_bottom_out[8] 0.000606822
2 *489:X 0.000606822
3 chany_bottom_out[8] left_grid_right_width_0_height_0_subtile_0__pin_outpad_0_ 2.80399e-05
4 chany_bottom_out[8] *463:A 0.000166485
5 chany_bottom_out[8] *499:A 0
6 chany_bottom_out[8] *126:32 0.00022263
7 chany_bottom_out[6] chany_bottom_out[8] 0
8 chany_bottom_out[7] chany_bottom_out[8] 0
*RES
1 *489:X chany_bottom_out[8] 23.943 
*END

*D_NET *21 0.00246532
*CONN
*P chany_top_in[0] I
*I *463:A I *D sky130_fd_sc_hd__buf_1
*CAP
1 chany_top_in[0] 0.0007825
2 *463:A 0.0007825
3 *463:A left_grid_right_width_0_height_0_subtile_0__pin_outpad_0_ 0
4 *463:A *464:A 0.000199127
5 *463:A *489:A 9.83442e-05
6 *463:A *126:32 0.000281707
7 *463:A *127:10 0.000154655
8 chany_bottom_out[7] *463:A 0
9 chany_bottom_out[8] *463:A 0.000166485
*RES
1 chany_top_in[0] *463:A 31.8536 
*END

*D_NET *22 0.00166873
*CONN
*P chany_top_in[1] I
*I *464:A I *D sky130_fd_sc_hd__buf_1
*CAP
1 chany_top_in[1] 0.000641606
2 *464:A 0.000641606
3 *464:A left_grid_right_width_0_height_0_subtile_0__pin_outpad_0_ 0
4 *464:A *465:A 3.57366e-05
5 *464:A *489:A 9.83442e-05
6 *464:A *127:10 5.23057e-05
7 *463:A *464:A 0.000199127
*RES
1 chany_top_in[1] *464:A 26.6036 
*END

*D_NET *23 0.00108877
*CONN
*P chany_top_in[2] I
*I *465:A I *D sky130_fd_sc_hd__buf_1
*CAP
1 chany_top_in[2] 0.000499001
2 *465:A 0.000499001
3 *465:A *125:8 0
4 *465:A *127:10 5.50313e-05
5 *464:A *465:A 3.57366e-05
*RES
1 chany_top_in[2] *465:A 23.8536 
*END

*D_NET *24 0.000974523
*CONN
*P chany_top_in[3] I
*I *466:A I *D sky130_fd_sc_hd__clkbuf_1
*CAP
1 chany_top_in[3] 0.000477611
2 *466:A 0.000477611
3 *466:A *407:A 1.93007e-05
*RES
1 chany_top_in[3] *466:A 22.7821 
*END

*D_NET *25 0.00115419
*CONN
*P chany_top_in[4] I
*I *467:A I *D sky130_fd_sc_hd__buf_1
*CAP
1 chany_top_in[4] 0.000506226
2 *467:A 0.000506226
3 *467:A *480:A 0.000141734
*RES
1 chany_top_in[4] *467:A 23.8536 
*END

*D_NET *26 0.00103721
*CONN
*P chany_top_in[5] I
*I *468:A I *D sky130_fd_sc_hd__clkbuf_1
*CAP
1 chany_top_in[5] 0.000446566
2 *468:A 0.000446566
3 *468:A *480:A 0.000144075
*RES
1 chany_top_in[5] *468:A 22.7821 
*END

*D_NET *27 0.000990814
*CONN
*P chany_top_in[6] I
*I *469:A I *D sky130_fd_sc_hd__buf_1
*CAP
1 chany_top_in[6] 0.000466833
2 *469:A 0.000466833
3 *469:A *480:A 5.71472e-05
*RES
1 chany_top_in[6] *469:A 23.0321 
*END

*D_NET *28 0.000791844
*CONN
*P chany_top_in[7] I
*I *470:A I *D sky130_fd_sc_hd__clkbuf_1
*CAP
1 chany_top_in[7] 0.00039323
2 *470:A 0.00039323
3 *470:A *480:A 5.38444e-06
4 ccff_tail *470:A 0
*RES
1 chany_top_in[7] *470:A 21.425 
*END

*D_NET *29 0.001868
*CONN
*P chany_top_in[8] I
*I *471:A I *D sky130_fd_sc_hd__buf_1
*CAP
1 chany_top_in[8] 0.000834859
2 *471:A 0.000834859
3 *471:A *501:A 0
4 ccff_tail *471:A 0
5 *461:A *471:A 0.00019828
*RES
1 chany_top_in[8] *471:A 28.9964 
*END

*D_NET *30 0.00115274
*CONN
*P chany_top_out[0] O
*I *490:X O *D sky130_fd_sc_hd__clkbuf_4
*CAP
1 chany_top_out[0] 0.000576369
2 *490:X 0.000576369
3 chany_top_out[0] chany_top_out[1] 0
4 *462:A chany_top_out[0] 0
*RES
1 *490:X chany_top_out[0] 24.73 
*END

*D_NET *31 0.00108889
*CONN
*P chany_top_out[1] O
*I *491:X O *D sky130_fd_sc_hd__buf_2
*CAP
1 chany_top_out[1] 0.000487896
2 *491:X 0.000487896
3 chany_top_out[1] chany_top_out[2] 0
4 chany_top_out[0] chany_top_out[1] 0
5 *462:A chany_top_out[1] 0.000113095
6 *479:A chany_top_out[1] 0
*RES
1 *491:X chany_top_out[1] 21.0559 
*END

*D_NET *32 0.000806067
*CONN
*P chany_top_out[2] O
*I *492:X O *D sky130_fd_sc_hd__clkbuf_4
*CAP
1 chany_top_out[2] 0.000378387
2 *492:X 0.000378387
3 chany_top_out[2] chany_top_out[3] 0
4 chany_top_out[2] *490:A 0
5 chany_top_out[2] *124:14 4.92942e-05
6 chany_top_out[1] chany_top_out[2] 0
*RES
1 *492:X chany_top_out[2] 19.9979 
*END

*D_NET *33 0.000808712
*CONN
*P chany_top_out[3] O
*I *493:X O *D sky130_fd_sc_hd__buf_2
*CAP
1 chany_top_out[3] 0.000336431
2 *493:X 0.000336431
3 chany_top_out[3] chany_top_out[4] 6.33652e-05
4 chany_top_out[3] *124:14 7.24849e-05
5 chany_top_out[2] chany_top_out[3] 0
*RES
1 *493:X chany_top_out[3] 18.9995 
*END

*D_NET *34 0.000854467
*CONN
*P chany_top_out[4] O
*I *494:X O *D sky130_fd_sc_hd__buf_2
*CAP
1 chany_top_out[4] 0.000338051
2 *494:X 0.000338051
3 chany_top_out[4] chany_top_out[5] 0
4 chany_top_out[4] *124:14 0.000114999
5 chany_top_out[3] chany_top_out[4] 6.33652e-05
*RES
1 *494:X chany_top_out[4] 19.4092 
*END

*D_NET *35 0.00064191
*CONN
*P chany_top_out[5] O
*I *495:X O *D sky130_fd_sc_hd__buf_2
*CAP
1 chany_top_out[5] 0.000309853
2 *495:X 0.000309853
3 chany_top_out[5] chany_top_out[6] 0
4 chany_top_out[5] *124:14 2.22043e-05
5 chany_top_out[4] chany_top_out[5] 0
*RES
1 *495:X chany_top_out[5] 18.1949 
*END

*D_NET *36 0.000747188
*CONN
*P chany_top_out[6] O
*I *496:X O *D sky130_fd_sc_hd__buf_2
*CAP
1 chany_top_out[6] 0.000296976
2 *496:X 0.000296976
3 chany_top_out[6] chany_top_out[7] 0.000110768
4 chany_top_out[6] *496:A 1.97695e-05
5 chany_top_out[6] *124:14 2.26973e-05
6 chany_top_out[5] chany_top_out[6] 0
*RES
1 *496:X chany_top_out[6] 18.9271 
*END

*D_NET *37 0.000887711
*CONN
*P chany_top_out[7] O
*I *497:X O *D sky130_fd_sc_hd__buf_2
*CAP
1 chany_top_out[7] 0.000352229
2 *497:X 0.000352229
3 chany_top_out[7] chany_top_out[8] 0
4 chany_top_out[7] *124:14 7.24849e-05
5 chany_top_out[6] chany_top_out[7] 0.000110768
*RES
1 *497:X chany_top_out[7] 19.0621 
*END

*D_NET *38 0.000815669
*CONN
*P chany_top_out[8] O
*I *498:X O *D sky130_fd_sc_hd__buf_2
*CAP
1 chany_top_out[8] 0.000387039
2 *498:X 0.000387039
3 chany_top_out[8] right_grid_left_width_0_height_0_subtile_0__pin_I_3_ 0
4 chany_top_out[8] *498:A 4.15914e-05
5 chany_top_out[7] chany_top_out[8] 0
*RES
1 *498:X chany_top_out[8] 19.4092 
*END

*D_NET *39 0.000931227
*CONN
*P left_grid_right_width_0_height_0_subtile_0__pin_outpad_0_ O
*I *499:X O *D sky130_fd_sc_hd__clkbuf_4
*CAP
1 left_grid_right_width_0_height_0_subtile_0__pin_outpad_0_ 0.000451593
2 *499:X 0.000451593
3 chany_bottom_out[8] left_grid_right_width_0_height_0_subtile_0__pin_outpad_0_ 2.80399e-05
4 *463:A left_grid_right_width_0_height_0_subtile_0__pin_outpad_0_ 0
5 *464:A left_grid_right_width_0_height_0_subtile_0__pin_outpad_0_ 0
*RES
1 *499:X left_grid_right_width_0_height_0_subtile_0__pin_outpad_0_ 21.1997 
*END

*D_NET *40 0.00668097
*CONN
*P prog_clk I
*I *451:A I *D sky130_fd_sc_hd__clkbuf_16
*CAP
1 prog_clk 0.00228168
2 *451:A 0.00228168
3 *451:A *347:A 0.000269198
4 *451:A *391:A 0.000391576
5 *451:A *401:CLK 0
6 *451:A *440:A 1.69175e-05
7 *451:A *442:A 7.04538e-05
8 *451:A *449:A 7.41454e-05
9 *451:A *454:A 0
10 *451:A *88:32 0
11 *451:A *94:8 0
12 *451:A *95:16 0.000266057
13 *451:A *109:22 0.000555115
14 *451:A *117:10 3.0285e-05
15 *451:A *145:10 0.000343296
16 *451:A *147:16 8.00806e-05
17 chany_bottom_out[0] *451:A 0
18 *475:A *451:A 2.04825e-05
*RES
1 prog_clk *451:A 43.8955 
*END

*D_NET *41 0.00067048
*CONN
*P right_grid_left_width_0_height_0_subtile_0__pin_I_3_ O
*I *500:X O *D sky130_fd_sc_hd__clkbuf_4
*CAP
1 right_grid_left_width_0_height_0_subtile_0__pin_I_3_ 0.00033524
2 *500:X 0.00033524
3 right_grid_left_width_0_height_0_subtile_0__pin_I_3_ right_grid_left_width_0_height_0_subtile_0__pin_I_7_ 0
4 right_grid_left_width_0_height_0_subtile_0__pin_I_3_ *500:A 0
5 chany_top_out[8] right_grid_left_width_0_height_0_subtile_0__pin_I_3_ 0
*RES
1 *500:X right_grid_left_width_0_height_0_subtile_0__pin_I_3_ 18.6586 
*END

*D_NET *42 0.000835974
*CONN
*P right_grid_left_width_0_height_0_subtile_0__pin_I_7_ O
*I *501:X O *D sky130_fd_sc_hd__buf_2
*CAP
1 right_grid_left_width_0_height_0_subtile_0__pin_I_7_ 0.000368832
2 *501:X 0.000368832
3 right_grid_left_width_0_height_0_subtile_0__pin_I_3_ right_grid_left_width_0_height_0_subtile_0__pin_I_7_ 0
4 *461:A right_grid_left_width_0_height_0_subtile_0__pin_I_7_ 9.83108e-05
*RES
1 *501:X right_grid_left_width_0_height_0_subtile_0__pin_I_7_ 18.9271 
*END

*D_NET *45 0.000258305
*CONN
*I *373:A I *D sky130_fd_sc_hd__clkbuf_1
*I *372:X O *D sky130_fd_sc_hd__clkbuf_1
*CAP
1 *373:A 7.73865e-05
2 *372:X 7.73865e-05
3 *373:A *390:A 5.26625e-05
4 *373:A *425:TE_B 3.08664e-05
5 *373:A *90:39 2.00031e-05
*RES
1 *372:X *373:A 20.6893 
*END

*D_NET *46 0.00102766
*CONN
*I *375:A I *D sky130_fd_sc_hd__clkbuf_1
*I *374:X O *D sky130_fd_sc_hd__clkbuf_1
*CAP
1 *375:A 0.000265668
2 *374:X 0.000265668
3 *375:A *401:D 9.77072e-05
4 *375:A *406:A 0.000224308
5 *375:A *422:A 3.63281e-05
6 *375:A *170:14 0.000137983
*RES
1 *374:X *375:A 32.9036 
*END

*D_NET *47 0.000784788
*CONN
*I *377:A I *D sky130_fd_sc_hd__clkbuf_1
*I *376:X O *D sky130_fd_sc_hd__clkbuf_1
*CAP
1 *377:A 0.000168705
2 *376:X 0.000168705
3 *377:A *496:A 0.000343728
4 *377:A *90:39 2.79092e-05
5 *377:A *108:16 7.57394e-05
*RES
1 *376:X *377:A 32.3857 
*END

*D_NET *48 0.000240238
*CONN
*I *339:A I *D sky130_fd_sc_hd__clkbuf_1
*I *338:X O *D sky130_fd_sc_hd__clkbuf_1
*CAP
1 *339:A 0.000120119
2 *338:X 0.000120119
*RES
1 *338:X *339:A 20.6893 
*END

*D_NET *49 0.00388149
*CONN
*I *341:A I *D sky130_fd_sc_hd__clkbuf_1
*I *340:X O *D sky130_fd_sc_hd__clkbuf_1
*CAP
1 *341:A 0
2 *340:X 0.00102815
3 *49:18 0.00102815
4 *49:18 *340:A 0
5 *49:18 *390:A 0.000125873
6 *49:18 *406:A 0.000535621
7 *49:18 *422:A 0.000536072
8 *49:18 *441:TE_B 5.25774e-05
9 *49:18 *446:TE_B 5.3116e-05
10 *49:18 *446:Z 0.000521933
11 *49:18 *449:TE_B 0
*RES
1 *340:X *49:18 42.7286 
2 *49:18 *341:A 9.3 
*END

*D_NET *50 0.000614073
*CONN
*I *346:A I *D sky130_fd_sc_hd__clkbuf_1
*I *345:X O *D sky130_fd_sc_hd__clkbuf_1
*CAP
1 *346:A 0.000257937
2 *345:X 0.000257937
3 *346:A *439:TE_B 8.00806e-05
4 *346:A *483:A 1.81186e-05
*RES
1 *345:X *346:A 31.5643 
*END

*D_NET *51 0.00167801
*CONN
*I *348:A I *D sky130_fd_sc_hd__clkbuf_1
*I *347:X O *D sky130_fd_sc_hd__clkbuf_1
*CAP
1 *348:A 0.000489135
2 *347:X 0.000489135
3 *348:A *343:A 0.000224308
4 *348:A *347:A 0.000153439
5 *348:A *397:CLK 2.28598e-05
6 *348:A *397:D 0
7 *348:A *440:A 5.49544e-05
8 *348:A *449:A 0.000125724
9 *348:A *96:18 8.56812e-05
10 *348:A *141:20 3.2773e-05
*RES
1 *347:X *348:A 36.975 
*END

*D_NET *52 0.000360739
*CONN
*I *351:A I *D sky130_fd_sc_hd__clkbuf_1
*I *350:X O *D sky130_fd_sc_hd__clkbuf_1
*CAP
1 *351:A 0.000104786
2 *350:X 0.000104786
3 *351:A *484:A 7.26525e-05
4 *351:A *126:32 7.85137e-05
5 *351:A *141:20 0
*RES
1 *350:X *351:A 29.9036 
*END

*D_NET *53 0.000984629
*CONN
*I *353:A I *D sky130_fd_sc_hd__clkbuf_1
*I *352:X O *D sky130_fd_sc_hd__clkbuf_1
*CAP
1 *353:A 0.000294288
2 *352:X 0.000294288
3 *353:A *385:A 0.000197681
4 *353:A *403:A 4.53449e-05
5 *353:A *433:TE_B 0.000153026
*RES
1 *352:X *353:A 24.7607 
*END

*D_NET *54 0.000781302
*CONN
*I *357:A I *D sky130_fd_sc_hd__clkbuf_1
*I *356:X O *D sky130_fd_sc_hd__clkbuf_1
*CAP
1 *357:A 0.00023789
2 *356:X 0.00023789
3 *357:A *390:A 0.00010748
4 *357:A *443:A 0.000102229
5 *357:A *443:TE_B 9.58126e-05
*RES
1 *356:X *357:A 23.975 
*END

*D_NET *55 0.00036065
*CONN
*I *359:A I *D sky130_fd_sc_hd__clkbuf_1
*I *358:X O *D sky130_fd_sc_hd__clkbuf_1
*CAP
1 *359:A 8.62357e-05
2 *358:X 8.62357e-05
3 *359:A *397:CLK 4.15914e-05
4 *359:A *434:TE_B 3.57366e-05
5 *359:A *442:TE_B 8.00806e-05
6 *359:A *96:6 1.74352e-05
7 *359:A *96:10 1.33343e-05
*RES
1 *358:X *359:A 29.9036 
*END

*D_NET *56 0.000279965
*CONN
*I *364:A I *D sky130_fd_sc_hd__clkbuf_1
*I *363:X O *D sky130_fd_sc_hd__clkbuf_1
*CAP
1 *364:A 8.37506e-05
2 *363:X 8.37506e-05
3 *364:A *363:A 1.789e-05
4 *364:A *380:A 0
5 *364:A *426:TE_B 2.07878e-05
6 *364:A *428:TE_B 7.37863e-05
*RES
1 *363:X *364:A 20.6893 
*END

*D_NET *57 0.000690242
*CONN
*I *367:A I *D sky130_fd_sc_hd__clkbuf_1
*I *366:X O *D sky130_fd_sc_hd__clkbuf_1
*CAP
1 *367:A 0.000185048
2 *366:X 0.000185048
3 *367:A *366:A 6.19181e-05
4 *367:A *374:A 9.83388e-05
5 *367:A *401:D 0.000100262
6 *367:A *422:A 9.25014e-06
7 *367:A *446:A 5.03772e-05
*RES
1 *366:X *367:A 31.4393 
*END

*D_NET *58 0.000545722
*CONN
*I *369:A I *D sky130_fd_sc_hd__clkbuf_1
*I *368:X O *D sky130_fd_sc_hd__clkbuf_1
*CAP
1 *369:A 0.000127811
2 *368:X 0.000127811
3 *369:A *495:A 3.85148e-05
4 *369:A *497:A 0.000251585
*RES
1 *368:X *369:A 30.4929 
*END

*D_NET *59 0.000695833
*CONN
*I *420:TE_B I *D sky130_fd_sc_hd__ebufn_1
*I *377:X O *D sky130_fd_sc_hd__clkbuf_1
*CAP
1 *420:TE_B 0.000132269
2 *377:X 0.000132269
3 *420:TE_B *378:A 6.91414e-05
4 *420:TE_B *423:A 0.000128154
5 *420:TE_B *423:TE_B 0.000175979
6 *420:TE_B *497:A 5.80217e-05
7 *420:TE_B *124:14 0
*RES
1 *377:X *420:TE_B 31.6714 
*END

*D_NET *60 0.000283349
*CONN
*I *422:TE_B I *D sky130_fd_sc_hd__ebufn_1
*I *375:X O *D sky130_fd_sc_hd__clkbuf_1
*CAP
1 *422:TE_B 4.46813e-05
2 *375:X 4.46813e-05
3 *422:TE_B *406:A 0.000127446
4 *422:TE_B *422:A 6.65398e-05
*RES
1 *375:X *422:TE_B 29.2429 
*END

*D_NET *61 0.00082046
*CONN
*I *423:TE_B I *D sky130_fd_sc_hd__ebufn_2
*I *369:X O *D sky130_fd_sc_hd__clkbuf_1
*CAP
1 *423:TE_B 0.000284036
2 *369:X 0.000284036
3 *423:TE_B *378:A 5.7119e-05
4 *423:TE_B *432:TE_B 0
5 *423:TE_B *495:A 1.92905e-05
6 *420:TE_B *423:TE_B 0.000175979
*RES
1 *369:X *423:TE_B 32.8143 
*END

*D_NET *62 0.00169035
*CONN
*I *424:TE_B I *D sky130_fd_sc_hd__ebufn_1
*I *367:X O *D sky130_fd_sc_hd__clkbuf_1
*CAP
1 *424:TE_B 0.000549481
2 *367:X 0.000549481
3 *424:TE_B *374:A 4.43256e-05
4 *424:TE_B *380:A 0.000203262
5 *424:TE_B *424:A 0.000166534
6 *424:TE_B *90:66 0.000137983
7 *424:TE_B *104:12 3.92854e-05
8 *424:TE_B *172:10 0
*RES
1 *367:X *424:TE_B 35.9393 
*END

*D_NET *63 0.000922681
*CONN
*I *425:TE_B I *D sky130_fd_sc_hd__ebufn_1
*I *373:X O *D sky130_fd_sc_hd__clkbuf_1
*CAP
1 *425:TE_B 0.000372026
2 *373:X 0.000372026
3 *425:TE_B *372:A 2.84026e-05
4 *425:TE_B *389:A 9.25014e-06
5 *425:TE_B *390:A 7.18353e-06
6 *425:TE_B *429:TE_B 5.30637e-06
7 *425:TE_B *437:TE_B 0
8 *425:TE_B *90:12 1.0033e-05
9 *425:TE_B *90:31 7.83659e-05
10 *425:TE_B *90:39 9.22103e-06
11 *373:A *425:TE_B 3.08664e-05
*RES
1 *373:X *425:TE_B 33.1893 
*END

*D_NET *64 0.000392327
*CONN
*I *426:TE_B I *D sky130_fd_sc_hd__ebufn_1
*I *364:X O *D sky130_fd_sc_hd__clkbuf_1
*CAP
1 *426:TE_B 0.000152642
2 *364:X 0.000152642
3 *426:TE_B *428:TE_B 3.79877e-06
4 *426:TE_B *91:14 6.24558e-05
5 *364:A *426:TE_B 2.07878e-05
*RES
1 *364:X *426:TE_B 30.1893 
*END

*D_NET *65 0.000425367
*CONN
*I *427:TE_B I *D sky130_fd_sc_hd__ebufn_1
*I *362:Y O *D sky130_fd_sc_hd__inv_2
*CAP
1 *427:TE_B 0.000141733
2 *362:Y 0.000141733
3 *427:TE_B *362:A 2.1768e-05
4 *427:TE_B *427:A 0.000120134
*RES
1 *362:Y *427:TE_B 30.3143 
*END

*D_NET *66 0.00161807
*CONN
*I *428:TE_B I *D sky130_fd_sc_hd__ebufn_1
*I *365:Y O *D sky130_fd_sc_hd__inv_2
*CAP
1 *428:TE_B 0.000635285
2 *365:Y 0.000635285
3 *428:TE_B *361:A 6.09804e-05
4 *428:TE_B *363:A 2.1768e-05
5 *428:TE_B *380:A 8.62025e-05
6 *428:TE_B *104:12 0.00010096
7 *364:A *428:TE_B 7.37863e-05
8 *426:TE_B *428:TE_B 3.79877e-06
*RES
1 *365:Y *428:TE_B 27.2607 
*END

*D_NET *67 0.000463411
*CONN
*I *429:TE_B I *D sky130_fd_sc_hd__ebufn_1
*I *371:Y O *D sky130_fd_sc_hd__inv_2
*CAP
1 *429:TE_B 0.000122745
2 *371:Y 0.000122745
3 *429:TE_B *390:A 4.72917e-05
4 *429:TE_B *90:39 9.90367e-05