*SPEF "ieee 1481-1999"
*DESIGN "cby_8__1_"
*DATE "11:11:11 Fri 11 11, 1111"
*VENDOR "OpenRCX"
*PROGRAM "Parallel Extraction"
*VERSION "1.0"
*DESIGN_FLOW "NAME_SCOPE LOCAL" "PIN_CAP NONE"
*DIVIDER /
*DELIMITER :
*BUS_DELIMITER []
*T_UNIT 1 NS
*C_UNIT 1 PF
*R_UNIT 1 OHM
*L_UNIT 1 HENRY

*NAME_MAP
*1 ccff_head
*2 ccff_tail
*3 chany_bottom_in[0]
*4 chany_bottom_in[1]
*5 chany_bottom_in[2]
*6 chany_bottom_in[3]
*7 chany_bottom_in[4]
*8 chany_bottom_in[5]
*9 chany_bottom_in[6]
*10 chany_bottom_in[7]
*11 chany_bottom_in[8]
*12 chany_bottom_out[0]
*13 chany_bottom_out[1]
*14 chany_bottom_out[2]
*15 chany_bottom_out[3]
*16 chany_bottom_out[4]
*17 chany_bottom_out[5]
*18 chany_bottom_out[6]
*19 chany_bottom_out[7]
*20 chany_bottom_out[8]
*21 chany_top_in[0]
*22 chany_top_in[1]
*23 chany_top_in[2]
*24 chany_top_in[3]
*25 chany_top_in[4]
*26 chany_top_in[5]
*27 chany_top_in[6]
*28 chany_top_in[7]
*29 chany_top_in[8]
*30 chany_top_out[0]
*31 chany_top_out[1]
*32 chany_top_out[2]
*33 chany_top_out[3]
*34 chany_top_out[4]
*35 chany_top_out[5]
*36 chany_top_out[6]
*37 chany_top_out[7]
*38 chany_top_out[8]
*39 left_grid_right_width_0_height_0_subtile_0__pin_I_1_
*40 left_grid_right_width_0_height_0_subtile_0__pin_I_5_
*41 left_grid_right_width_0_height_0_subtile_0__pin_I_9_
*42 prog_clk
*43 right_grid_left_width_0_height_0_subtile_0__pin_outpad_0_
*46 _000_
*47 _001_
*48 _002_
*49 _003_
*50 _004_
*51 _005_
*52 _006_
*53 _007_
*54 _008_
*55 _009_
*56 _010_
*57 _011_
*58 _012_
*59 _013_
*60 _014_
*61 _015_
*62 _016_
*63 _017_
*64 _018_
*65 _019_
*66 _020_
*67 _021_
*68 _022_
*69 _023_
*70 _024_
*71 _025_
*72 _026_
*73 _027_
*74 _028_
*75 _029_
*76 _030_
*77 _031_
*78 _032_
*79 _033_
*80 _034_
*81 _035_
*82 _036_
*83 _037_
*84 _038_
*85 _039_
*86 _040_
*87 _041_
*88 _042_
*89 _043_
*90 _044_
*91 _045_
*92 _046_
*93 _047_
*94 clknet_0_prog_clk
*95 clknet_1_0__leaf_prog_clk
*96 clknet_1_1__leaf_prog_clk
*97 mem_left_ipin_0\.DFF_0_\.Q
*98 mem_left_ipin_0\.DFF_1_\.Q
*99 mem_left_ipin_0\.DFF_2_\.Q
*100 mem_right_ipin_0\.DFF_0_\.Q
*101 mem_right_ipin_0\.DFF_1_\.Q
*102 mem_right_ipin_0\.DFF_2_\.Q
*103 mem_right_ipin_1\.DFF_0_\.Q
*104 mem_right_ipin_1\.DFF_1_\.Q
*105 mem_right_ipin_2\.DFF_0_\.Q
*106 mux_left_ipin_0\.INVTX1_0_\.out
*107 mux_left_ipin_0\.INVTX1_1_\.out
*108 mux_left_ipin_0\.INVTX1_2_\.out
*109 mux_left_ipin_0\.INVTX1_3_\.out
*110 mux_left_ipin_0\.INVTX1_4_\.out
*111 mux_left_ipin_0\.INVTX1_5_\.out
*112 mux_left_ipin_0\.mux_l1_in_0_\.TGATE_0_\.out
*113 mux_left_ipin_0\.mux_l1_in_1_\.TGATE_0_\.out
*114 mux_left_ipin_0\.mux_l1_in_2_\.TGATE_0_\.out
*115 mux_left_ipin_0\.mux_l2_in_0_\.TGATE_0_\.out
*116 mux_left_ipin_0\.mux_l2_in_1_\.TGATE_0_\.out
*117 mux_left_ipin_0\.mux_l3_in_0_\.TGATE_0_\.out
*118 mux_right_ipin_0\.INVTX1_2_\.out
*119 mux_right_ipin_0\.INVTX1_3_\.out
*120 mux_right_ipin_0\.INVTX1_4_\.out
*121 mux_right_ipin_0\.INVTX1_5_\.out
*122 mux_right_ipin_0\.mux_l1_in_0_\.TGATE_0_\.out
*123 mux_right_ipin_0\.mux_l1_in_1_\.TGATE_0_\.out
*124 mux_right_ipin_0\.mux_l1_in_2_\.TGATE_0_\.out
*125 mux_right_ipin_0\.mux_l2_in_0_\.TGATE_0_\.out
*126 mux_right_ipin_0\.mux_l2_in_1_\.TGATE_0_\.out
*127 mux_right_ipin_0\.mux_l3_in_0_\.TGATE_0_\.out
*128 mux_right_ipin_1\.INVTX1_0_\.out
*129 mux_right_ipin_1\.INVTX1_1_\.out
*130 mux_right_ipin_1\.mux_l1_in_0_\.TGATE_0_\.out
*131 mux_right_ipin_1\.mux_l2_in_0_\.TGATE_0_\.out
*132 mux_right_ipin_2\.INVTX1_0_\.out
*133 mux_right_ipin_2\.INVTX1_1_\.out
*134 mux_right_ipin_2\.mux_l1_in_0_\.TGATE_0_\.out
*135 mux_right_ipin_2\.mux_l2_in_0_\.TGATE_0_\.out
*136 net1
*137 net10
*138 net11
*139 net12
*140 net13
*141 net14
*142 net15
*143 net16
*144 net17
*145 net18
*146 net19
*147 net2
*148 net20
*149 net21
*150 net22
*151 net23
*152 net24
*153 net25
*154 net26
*155 net27
*156 net28
*157 net29
*158 net3
*159 net30
*160 net31
*161 net32
*162 net33
*163 net34
*164 net35
*165 net36
*166 net37
*167 net38
*168 net39
*169 net4
*170 net40
*171 net41
*172 net42
*173 net43
*174 net44
*175 net45
*176 net46
*177 net47
*178 net48
*179 net49
*180 net5
*181 net50
*182 net51
*183 net52
*184 net53
*185 net54
*186 net55
*187 net6
*188 net7
*189 net8
*190 net9
*191 FILLER_0_0_12
*192 FILLER_0_0_19
*193 FILLER_0_0_27
*194 FILLER_0_0_32
*195 FILLER_0_0_43
*196 FILLER_0_0_50
*197 FILLER_0_0_57
*198 FILLER_0_0_63
*199 FILLER_0_0_71
*200 FILLER_0_0_76
*201 FILLER_0_0_85
*202 FILLER_0_0_89
*203 FILLER_0_10_101
*204 FILLER_0_10_24
*205 FILLER_0_10_3
*206 FILLER_0_10_35
*207 FILLER_0_10_67
*208 FILLER_0_10_74
*209 FILLER_0_10_83
*210 FILLER_0_10_88
*211 FILLER_0_10_94
*212 FILLER_0_11_3
*213 FILLER_0_11_60
*214 FILLER_0_11_81
*215 FILLER_0_11_87
*216 FILLER_0_11_91
*217 FILLER_0_12_15
*218 FILLER_0_12_49
*219 FILLER_0_12_72
*220 FILLER_0_12_85
*221 FILLER_0_12_93
*222 FILLER_0_13_3
*223 FILLER_0_13_38
*224 FILLER_0_13_46
*225 FILLER_0_13_66
*226 FILLER_0_13_79
*227 FILLER_0_13_85
*228 FILLER_0_13_95
*229 FILLER_0_1_102
*230 FILLER_0_1_25
*231 FILLER_0_1_3
*232 FILLER_0_1_36
*233 FILLER_0_1_48
*234 FILLER_0_1_57
*235 FILLER_0_1_69
*236 FILLER_0_1_81
*237 FILLER_0_1_93
*238 FILLER_0_1_98
*239 FILLER_0_2_18
*240 FILLER_0_2_27
*241 FILLER_0_2_35
*242 FILLER_0_2_47
*243 FILLER_0_2_59
*244 FILLER_0_2_71
*245 FILLER_0_2_83
*246 FILLER_0_2_85
*247 FILLER_0_2_97
*248 FILLER_0_3_3
*249 FILLER_0_3_38
*250 FILLER_0_3_45
*251 FILLER_0_3_51
*252 FILLER_0_3_55
*253 FILLER_0_3_57
*254 FILLER_0_3_69
*255 FILLER_0_3_81
*256 FILLER_0_3_93
*257 FILLER_0_4_14
*258 FILLER_0_4_24
*259 FILLER_0_4_32
*260 FILLER_0_4_42
*261 FILLER_0_4_49
*262 FILLER_0_4_56
*263 FILLER_0_4_80
*264 FILLER_0_4_85
*265 FILLER_0_4_9
*266 FILLER_0_4_97
*267 FILLER_0_5_3
*268 FILLER_0_5_57
*269 FILLER_0_5_69
*270 FILLER_0_5_86
*271 FILLER_0_5_92
*272 FILLER_0_6_21
*273 FILLER_0_6_29
*274 FILLER_0_6_3
*275 FILLER_0_6_41
*276 FILLER_0_6_88
*277 FILLER_0_6_96
*278 FILLER_0_7_26
*279 FILLER_0_7_46
*280 FILLER_0_7_9
*281 FILLER_0_7_98
*282 FILLER_0_8_101
*283 FILLER_0_8_68
*284 FILLER_0_8_83
*285 FILLER_0_9_3
*286 FILLER_0_9_63
*287 FILLER_0_9_71
*288 FILLER_0_9_97
*289 PHY_0
*290 PHY_1
*291 PHY_10
*292 PHY_11
*293 PHY_12
*294 PHY_13
*295 PHY_14
*296 PHY_15
*297 PHY_16
*298 PHY_17
*299 PHY_18
*300 PHY_19
*301 PHY_2
*302 PHY_20
*303 PHY_21
*304 PHY_22
*305 PHY_23
*306 PHY_24
*307 PHY_25
*308 PHY_26
*309 PHY_27
*310 PHY_3
*311 PHY_4
*312 PHY_5
*313 PHY_6
*314 PHY_7
*315 PHY_8
*316 PHY_9
*317 TAP_28
*318 TAP_29
*319 TAP_30
*320 TAP_31
*321 TAP_32
*322 TAP_33
*323 TAP_34
*324 TAP_35
*325 TAP_36
*326 TAP_37
*327 TAP_38
*328 TAP_39
*329 TAP_40
*330 TAP_41
*331 TAP_42
*332 TAP_43
*333 TAP_44
*334 TAP_45
*335 TAP_46
*336 TAP_47
*337 TAP_48
*338 TAP_49
*339 TAP_50
*340 TAP_51
*341 _052_
*342 _053_
*343 _054_
*344 _055_
*345 _056_
*346 _057_
*347 _058_
*348 _059_
*349 _060_
*350 _061_
*351 _062_
*352 _063_
*353 _064_
*354 _065_
*355 _066_
*356 _067_
*357 _068_
*358 _069_
*359 _070_
*360 _071_
*361 _072_
*362 _073_
*363 _074_
*364 _075_
*365 _076_
*366 _077_
*367 _078_
*368 _079_
*369 _080_
*370 _081_
*371 _082_
*372 _083_
*373 _084_
*374 _085_
*375 _086_
*376 _087_
*377 _088_
*378 _089_
*379 _090_
*380 _091_
*381 _092_
*382 _093_
*383 _094_
*384 _095_
*385 _096_
*386 _097_
*387 _098_
*388 _099_
*389 _100_
*390 _101_
*391 _102_
*392 _103_
*393 _104_
*394 _105_
*395 _106_
*396 _107_
*397 _108_
*398 _109_
*399 _110_
*400 _111_
*401 _112_
*402 _113_
*403 _114_
*404 _115_
*405 _116_
*406 _117_
*407 _118_
*408 _119_
*409 _120_
*410 _121_
*411 _122_
*412 _123_
*413 _124_
*414 _125_
*415 _126_
*416 _127_
*417 _132_
*418 _133_
*419 _134_
*420 _135_
*421 _136_
*422 _137_
*423 _138_
*424 _139_
*425 _140_
*426 _141_
*427 _142_
*428 _143_
*429 _144_
*430 _145_
*431 _146_
*432 _147_
*433 _148_
*434 _149_
*435 _150_
*436 _150__43
*437 _151_
*438 _152_
*439 _153_
*440 _154_
*441 _155_
*442 _156_
*443 _157_
*444 _158_
*445 _159_
*446 _160_
*447 _161_
*448 _162_
*449 _163_
*450 _163__44
*451 _164_
*452 _165_
*453 _166_
*454 _167_
*455 _168_
*456 _169_
*457 _170_
*458 _171_
*459 _172_
*460 _173_
*461 _174_
*462 _174__45
*463 _175_
*464 _176_
*465 _177_
*466 _178_
*467 _178__46
*468 _179_
*469 _180_
*470 _181_
*471 clkbuf_0_prog_clk
*472 clkbuf_1_0__f_prog_clk
*473 clkbuf_1_1__f_prog_clk
*474 hold1
*475 hold2
*476 hold3
*477 hold4
*478 hold5
*479 hold6
*480 hold7
*481 hold8
*482 hold9
*483 input1
*484 input10
*485 input11
*486 input12
*487 input13
*488 input14
*489 input15
*490 input16
*491 input17
*492 input18
*493 input19
*494 input2
*495 input3
*496 input4
*497 input5
*498 input6
*499 input7
*500 input8
*501 input9
*502 output20
*503 output21
*504 output22
*505 output23
*506 output24
*507 output25
*508 output26
*509 output27
*510 output28
*511 output29
*512 output30
*513 output31
*514 output32
*515 output33
*516 output34
*517 output35
*518 output36
*519 output37
*520 output38
*521 output39
*522 output40
*523 output41
*524 output42

*PORTS
ccff_head I
ccff_tail O
chany_bottom_in[0] I
chany_bottom_in[1] I
chany_bottom_in[2] I
chany_bottom_in[3] I
chany_bottom_in[4] I
chany_bottom_in[5] I
chany_bottom_in[6] I
chany_bottom_in[7] I
chany_bottom_in[8] I
chany_bottom_out[0] O
chany_bottom_out[1] O
chany_bottom_out[2] O
chany_bottom_out[3] O
chany_bottom_out[4] O
chany_bottom_out[5] O
chany_bottom_out[6] O
chany_bottom_out[7] O
chany_bottom_out[8] O
chany_top_in[0] I
chany_top_in[1] I
chany_top_in[2] I
chany_top_in[3] I
chany_top_in[4] I
chany_top_in[5] I
chany_top_in[6] I
chany_top_in[7] I
chany_top_in[8] I
chany_top_out[0] O
chany_top_out[1] O
chany_top_out[2] O
chany_top_out[3] O
chany_top_out[4] O
chany_top_out[5] O
chany_top_out[6] O
chany_top_out[7] O
chany_top_out[8] O
left_grid_right_width_0_height_0_subtile_0__pin_I_1_ O
left_grid_right_width_0_height_0_subtile_0__pin_I_5_ O
left_grid_right_width_0_height_0_subtile_0__pin_I_9_ O
prog_clk I
right_grid_left_width_0_height_0_subtile_0__pin_outpad_0_ O

*D_NET *1 0.0011368
*CONN
*P ccff_head I
*I *483:A I *D sky130_fd_sc_hd__clkbuf_1
*CAP
1 ccff_head 0.000484778
2 *483:A 0.000484778
3 *483:A ccff_tail 2.27416e-05
4 *483:A right_grid_left_width_0_height_0_subtile_0__pin_outpad_0_ 5.36514e-05
5 *483:A *492:A 1.06173e-05
6 *483:A *502:A 8.02324e-05
*RES
1 ccff_head *483:A 22.3907 
*END

*D_NET *2 0.000972639
*CONN
*P ccff_tail O
*I *502:X O *D sky130_fd_sc_hd__clkbuf_4
*CAP
1 ccff_tail 0.000474949
2 *502:X 0.000474949
3 ccff_tail *492:A 0
4 ccff_tail *493:A 0
5 ccff_tail *502:A 0
6 *483:A ccff_tail 2.27416e-05
*RES
1 *502:X ccff_tail 21.6943 
*END

*D_NET *3 0.00310069
*CONN
*P chany_bottom_in[0] I
*I *494:A I *D sky130_fd_sc_hd__buf_1
*CAP
1 chany_bottom_in[0] 0.000856677
2 *494:A 0.000856677
3 *494:A chany_bottom_out[0] 0.000126639
4 *494:A *355:A 9.66977e-05
5 *494:A *433:A 0.000136951
6 *494:A *459:TE_B 3.909e-05
7 *494:A *495:A 0.000730747
8 *494:A *100:64 0.000140088
9 *494:A *160:10 0.000117121
*RES
1 chany_bottom_in[0] *494:A 34.4786 
*END

*D_NET *4 0.00315432
*CONN
*P chany_bottom_in[1] I
*I *495:A I *D sky130_fd_sc_hd__buf_1
*CAP
1 chany_bottom_in[1] 0.00075162
2 *495:A 0.00075162
3 *495:A chany_bottom_out[0] 0
4 *495:A *355:A 5.58941e-05
5 *495:A *397:A 0.000312215
6 *495:A *453:A 5.49489e-05
7 *495:A *503:A 5.7616e-05
8 *495:A *140:31 5.38886e-05
9 *495:A *147:10 0.000102362
10 *495:A *160:10 0.000283408
11 *494:A *495:A 0.000730747
*RES
1 chany_bottom_in[1] *495:A 32.9964 
*END

*D_NET *5 0.000945332
*CONN
*P chany_bottom_in[2] I
*I *496:A I *D sky130_fd_sc_hd__buf_1
*CAP
1 chany_bottom_in[2] 0.000463616
2 *496:A 0.000463616
3 *496:A *433:A 9.25014e-06
4 *496:A *459:TE_B 8.85027e-06
5 *496:A *100:64 0
6 *496:A *140:31 0
*RES
1 chany_bottom_in[2] *496:A 21.8357 
*END

*D_NET *6 0.000910922
*CONN
*P chany_bottom_in[3] I
*I *497:A I *D sky130_fd_sc_hd__buf_1
*CAP
1 chany_bottom_in[3] 0.000360229
2 *497:A 0.000360229
3 *497:A *471:A 0.000190464
4 *497:A *100:64 0
*RES
1 chany_bottom_in[3] *497:A 21.9607 
*END

*D_NET *7 0.00087223
*CONN
*P chany_bottom_in[4] I
*I *498:A I *D sky130_fd_sc_hd__buf_1
*CAP
1 chany_bottom_in[4] 0.000408164
2 *498:A 0.000408164
3 *498:A *423:A 0
4 *498:A *180:12 5.59013e-05
*RES
1 chany_bottom_in[4] *498:A 21.9607 
*END

*D_NET *8 0.000826448
*CONN
*P chany_bottom_in[5] I
*I *499:A I *D sky130_fd_sc_hd__buf_1
*CAP
1 chany_bottom_in[5] 0.000413224
2 *499:A 0.000413224
*RES
1 chany_bottom_in[5] *499:A 21.9607 
*END

*D_NET *9 0.000841605
*CONN
*P chany_bottom_in[6] I
*I *500:A I *D sky130_fd_sc_hd__clkbuf_1
*CAP
1 chany_bottom_in[6] 0.000420802
2 *500:A 0.000420802
*RES
1 chany_bottom_in[6] *500:A 21.8357 
*END

*D_NET *10 0.000841605
*CONN
*P chany_bottom_in[7] I
*I *501:A I *D sky130_fd_sc_hd__clkbuf_1
*CAP
1 chany_bottom_in[7] 0.000420802
2 *501:A 0.000420802
3 *501:A *159:12 0
*RES
1 chany_bottom_in[7] *501:A 21.8357 
*END

*D_NET *11 0.00142938
*CONN
*P chany_bottom_in[8] I
*I *484:A I *D sky130_fd_sc_hd__buf_1
*CAP
1 chany_bottom_in[8] 0.000518992
2 *484:A 0.000518992
3 *484:A chany_top_out[0] 0.00031452
4 *484:A chany_top_out[1] 0
5 *484:A *518:A 3.51442e-05
6 *484:A *159:12 4.17349e-05
*RES
1 chany_bottom_in[8] *484:A 24.6929 
*END

*D_NET *12 0.000593678
*CONN
*P chany_bottom_out[0] O
*I *503:X O *D sky130_fd_sc_hd__clkbuf_4
*CAP
1 chany_bottom_out[0] 0.00023352
2 *503:X 0.00023352
3 chany_bottom_out[0] chany_bottom_out[1] 0
4 chany_bottom_out[0] *471:A 0
5 *494:A chany_bottom_out[0] 0.000126639
6 *495:A chany_bottom_out[0] 0
*RES
1 *503:X chany_bottom_out[0] 20.2447 
*END

*D_NET *13 0.00126823
*CONN
*P chany_bottom_out[1] O
*I *504:X O *D sky130_fd_sc_hd__clkbuf_4
*CAP
1 chany_bottom_out[1] 0.000548285
2 *504:X 0.000548285
3 chany_bottom_out[1] chany_bottom_out[2] 2.48011e-05
4 chany_bottom_out[1] *357:A 0
5 chany_bottom_out[1] *362:A 4.58976e-05
6 chany_bottom_out[1] *505:A 0.00010096
7 chany_bottom_out[0] chany_bottom_out[1] 0
*RES
1 *504:X chany_bottom_out[1] 23.7096 
*END

*D_NET *14 0.000706229
*CONN
*P chany_bottom_out[2] O
*I *505:X O *D sky130_fd_sc_hd__clkbuf_4
*CAP
1 chany_bottom_out[2] 0.000340714
2 *505:X 0.000340714
3 chany_bottom_out[2] chany_bottom_out[3] 0
4 chany_bottom_out[2] *357:A 0
5 chany_bottom_out[1] chany_bottom_out[2] 2.48011e-05
*RES
1 *505:X chany_bottom_out[2] 20.9589 
*END

*D_NET *15 0.00108683
*CONN
*P chany_bottom_out[3] O
*I *506:X O *D sky130_fd_sc_hd__clkbuf_4
*CAP
1 chany_bottom_out[3] 0.000415918
2 *506:X 0.000415918
3 chany_bottom_out[3] chany_bottom_out[4] 0.000135011
4 chany_bottom_out[3] *352:A 9.71197e-05
5 chany_bottom_out[3] *357:A 0
6 chany_bottom_out[3] *455:TE_B 2.28598e-05
7 chany_bottom_out[3] *506:A 0
8 chany_bottom_out[2] chany_bottom_out[3] 0
*RES
1 *506:X chany_bottom_out[3] 23.8339 
*END

*D_NET *16 0.00102538
*CONN
*P chany_bottom_out[4] O
*I *507:X O *D sky130_fd_sc_hd__clkbuf_4
*CAP
1 chany_bottom_out[4] 0.000445183
2 *507:X 0.000445183
3 chany_bottom_out[4] chany_bottom_out[5] 0
4 chany_bottom_out[4] *357:A 0
5 chany_bottom_out[3] chany_bottom_out[4] 0.000135011
*RES
1 *507:X chany_bottom_out[4] 23.0489 
*END

*D_NET *17 0.000478315
*CONN
*P chany_bottom_out[5] O
*I *508:X O *D sky130_fd_sc_hd__clkbuf_4
*CAP
1 chany_bottom_out[5] 0.000239158
2 *508:X 0.000239158
3 chany_bottom_out[5] chany_bottom_out[6] 0
4 chany_bottom_out[4] chany_bottom_out[5] 0
*RES
1 *508:X chany_bottom_out[5] 19.9411 
*END

*D_NET *18 0.00264283
*CONN
*P chany_bottom_out[6] O
*I *509:X O *D sky130_fd_sc_hd__clkbuf_4
*CAP
1 chany_bottom_out[6] 0.000980088
2 *509:X 0.000980088
3 chany_bottom_out[6] chany_bottom_out[7] 0
4 chany_bottom_out[6] *349:A 9.99853e-05
5 chany_bottom_out[6] *463:A 0.000134436
6 chany_bottom_out[6] *463:TE_B 0.00011082
7 chany_bottom_out[6] *464:A 1.93106e-05
8 chany_bottom_out[6] *138:18 0
9 chany_bottom_out[6] *140:14 0.00010096
10 chany_bottom_out[6] *140:31 0.000217141
11 chany_bottom_out[5] chany_bottom_out[6] 0
*RES
1 *509:X chany_bottom_out[6] 31.9972 
*END

*D_NET *19 0.00107237
*CONN
*P chany_bottom_out[7] O
*I *510:X O *D sky130_fd_sc_hd__clkbuf_4
*CAP
1 chany_bottom_out[7] 0.000396418
2 *510:X 0.000396418
3 chany_bottom_out[7] chany_bottom_out[8] 6.51185e-05
4 chany_bottom_out[7] *413:D 0
5 chany_bottom_out[7] *140:14 0.00021442
6 chany_bottom_out[6] chany_bottom_out[7] 0
*RES
1 *510:X chany_bottom_out[7] 20.9306 
*END

*D_NET *20 0.00194447
*CONN
*P chany_bottom_out[8] O
*I *511:X O *D sky130_fd_sc_hd__clkbuf_4
*CAP
1 chany_bottom_out[8] 0.000639348
2 *511:X 0.000639348
3 chany_bottom_out[8] left_grid_right_width_0_height_0_subtile_0__pin_I_1_ 3.07455e-05
4 chany_bottom_out[8] *487:A 0.000401948
5 chany_bottom_out[8] *140:14 0.000167965
6 chany_bottom_out[7] chany_bottom_out[8] 6.51185e-05
*RES
1 *511:X chany_bottom_out[8] 25.8716 
*END

*D_NET *21 0.00320284
*CONN
*P chany_top_in[0] I
*I *485:A I *D sky130_fd_sc_hd__buf_1
*CAP
1 chany_top_in[0] 0.00122624
2 *485:A 0.00122624
3 *485:A left_grid_right_width_0_height_0_subtile_0__pin_I_1_ 0.000405733
4 *485:A *487:A 0.000204534
5 *485:A *171:26 0.000140088
*RES
1 chany_top_in[0] *485:A 34.5321 
*END

*D_NET *22 0.00158661
*CONN
*P chany_top_in[1] I
*I *486:A I *D sky130_fd_sc_hd__buf_1
*CAP
1 chany_top_in[1] 0.000711747
2 *486:A 0.000711747
3 *486:A left_grid_right_width_0_height_0_subtile_0__pin_I_5_ 7.26143e-05
4 *486:A left_grid_right_width_0_height_0_subtile_0__pin_I_9_ 0
5 *486:A *521:A 2.22164e-05
6 *486:A *522:A 5.49489e-05
7 *486:A *140:14 0
8 *486:A *157:18 1.33343e-05
*RES
1 chany_top_in[1] *486:A 27.0321 
*END

*D_NET *23 0.00240392
*CONN
*P chany_top_in[2] I
*I *487:A I *D sky130_fd_sc_hd__buf_1
*CAP
1 chany_top_in[2] 0.000690343
2 *487:A 0.000690343
3 *487:A left_grid_right_width_0_height_0_subtile_0__pin_I_1_ 8.03485e-05
4 *487:A left_grid_right_width_0_height_0_subtile_0__pin_I_5_ 0
5 *487:A left_grid_right_width_0_height_0_subtile_0__pin_I_9_ 0
6 *487:A *138:16 0.000312209
7 *487:A *171:26 2.41928e-05
8 chany_bottom_out[8] *487:A 0.000401948
9 *485:A *487:A 0.000204534
*RES
1 chany_top_in[2] *487:A 31.3536 
*END

*D_NET *24 0.00129813
*CONN
*P chany_top_in[3] I
*I *488:A I *D sky130_fd_sc_hd__buf_1
*CAP
1 chany_top_in[3] 0.000551901
2 *488:A 0.000551901
3 *488:A *86:20 2.56601e-05
4 *488:A *88:16 0
5 *488:A *171:26 0.000168663
*RES
1 chany_top_in[3] *488:A 24.55 
*END

*D_NET *25 0.00158714
*CONN
*P chany_top_in[4] I
*I *489:A I *D sky130_fd_sc_hd__buf_1
*CAP
1 chany_top_in[4] 0.000589949
2 *489:A 0.000589949
3 *489:A *400:A 0.000210542
4 *489:A *502:A 0
5 *489:A *86:20 0
6 *489:A *142:18 0.000196702
*RES
1 chany_top_in[4] *489:A 27.4964 
*END

*D_NET *26 0.00101538
*CONN
*P chany_top_in[5] I
*I *490:A I *D sky130_fd_sc_hd__buf_1
*CAP
1 chany_top_in[5] 0.000453585
2 *490:A 0.000453585
3 *490:A *400:A 3.08382e-06
4 *490:A *461:A 7.94648e-05
5 *490:A *86:20 2.56601e-05
6 *490:A *88:16 0
*RES
1 chany_top_in[5] *490:A 22.7821 
*END

*D_NET *27 0.00100641
*CONN
*P chany_top_in[6] I
*I *491:A I *D sky130_fd_sc_hd__clkbuf_1
*CAP
1 chany_top_in[6] 0.000487272
2 *491:A 0.000487272
3 *491:A *409:D 3.18676e-05
4 *491:A *88:16 0
*RES
1 chany_top_in[6] *491:A 23.0321 
*END

*D_NET *28 0.00108917
*CONN
*P chany_top_in[7] I
*I *492:A I *D sky130_fd_sc_hd__clkbuf_1
*CAP
1 chany_top_in[7] 0.000453109
2 *492:A 0.000453109
3 *492:A *409:D 2.07878e-05
4 *492:A *502:A 0.000151544
5 ccff_tail *492:A 0
6 *483:A *492:A 1.06173e-05
*RES
1 chany_top_in[7] *492:A 22.9071 
*END

*D_NET *29 0.00163232
*CONN
*P chany_top_in[8] I
*I *493:A I *D sky130_fd_sc_hd__buf_1
*CAP
1 chany_top_in[8] 0.000816162
2 *493:A 0.000816162
3 *493:A right_grid_left_width_0_height_0_subtile_0__pin_outpad_0_ 0
4 ccff_tail *493:A 0
*RES
1 chany_top_in[8] *493:A 28.5143 
*END

*D_NET *30 0.00120437
*CONN
*P chany_top_out[0] O
*I *512:X O *D sky130_fd_sc_hd__buf_2
*CAP
1 chany_top_out[0] 0.000444925
2 *512:X 0.000444925
3 chany_top_out[0] chany_top_out[1] 0
4 *484:A chany_top_out[0] 0.00031452
*RES
1 *512:X chany_top_out[0] 22.126 
*END

*D_NET *31 0.000894058
*CONN
*P chany_top_out[1] O
*I *513:X O *D sky130_fd_sc_hd__buf_2
*CAP
1 chany_top_out[1] 0.000435329
2 *513:X 0.000435329
3 chany_top_out[1] chany_top_out[2] 2.34006e-05
4 chany_top_out[0] chany_top_out[1] 0
5 *484:A chany_top_out[1] 0
*RES
1 *513:X chany_top_out[1] 21.2463 
*END

*D_NET *32 0.000841319
*CONN
*P chany_top_out[2] O
*I *514:X O *D sky130_fd_sc_hd__buf_2
*CAP
1 chany_top_out[2] 0.000362715
2 *514:X 0.000362715
3 chany_top_out[2] chany_top_out[3] 0
4 chany_top_out[2] *518:A 1.41231e-05
5 chany_top_out[2] *137:10 7.83659e-05
6 chany_top_out[1] chany_top_out[2] 2.34006e-05
*RES
1 *514:X chany_top_out[2] 19.4092 
*END

*D_NET *33 0.00064191
*CONN
*P chany_top_out[3] O
*I *515:X O *D sky130_fd_sc_hd__buf_2
*CAP
1 chany_top_out[3] 0.000309853
2 *515:X 0.000309853
3 chany_top_out[3] chany_top_out[4] 0
4 chany_top_out[3] *137:10 2.22043e-05
5 chany_top_out[2] chany_top_out[3] 0
*RES
1 *515:X chany_top_out[3] 18.1949 
*END

*D_NET *34 0.00082339
*CONN
*P chany_top_out[4] O
*I *516:X O *D sky130_fd_sc_hd__buf_2
*CAP
1 chany_top_out[4] 0.000352984
2 *516:X 0.000352984
3 chany_top_out[4] chany_top_out[5] 0
4 chany_top_out[4] *137:10 0.000117421
5 chany_top_out[3] chany_top_out[4] 0
*RES
1 *516:X chany_top_out[4] 19.4092 
*END

*D_NET *35 0.000674321
*CONN
*P chany_top_out[5] O
*I *517:X O *D sky130_fd_sc_hd__clkbuf_4
*CAP
1 chany_top_out[5] 0.000305192
2 *517:X 0.000305192
3 chany_top_out[5] chany_top_out[6] 5.10786e-05
4 chany_top_out[5] *137:10 1.28585e-05
5 chany_top_out[4] chany_top_out[5] 0
*RES
1 *517:X chany_top_out[5] 18.3203 
*END

*D_NET *36 0.000669381
*CONN
*P chany_top_out[6] O
*I *518:X O *D sky130_fd_sc_hd__buf_2
*CAP
1 chany_top_out[6] 0.000285355
2 *518:X 0.000285355
3 chany_top_out[6] chany_top_out[7] 0
4 chany_top_out[6] *137:10 4.75911e-05
5 chany_top_out[5] chany_top_out[6] 5.10786e-05
*RES
1 *518:X chany_top_out[6] 18.4985 
*END

*D_NET *37 0.000626891
*CONN
*P chany_top_out[7] O
*I *519:X O *D sky130_fd_sc_hd__buf_2
*CAP
1 chany_top_out[7] 0.000302343
2 *519:X 0.000302343
3 chany_top_out[7] chany_top_out[8] 0
4 chany_top_out[7] *137:10 2.22043e-05
5 chany_top_out[6] chany_top_out[7] 0
*RES
1 *519:X chany_top_out[7] 18.1949 
*END

*D_NET *38 0.000831539
*CONN
*P chany_top_out[8] O
*I *520:X O *D sky130_fd_sc_hd__clkbuf_4
*CAP
1 chany_top_out[8] 0.000401815
2 *520:X 0.000401815
3 chany_top_out[8] right_grid_left_width_0_height_0_subtile_0__pin_outpad_0_ 0
4 chany_top_out[8] *524:A 2.79092e-05
5 chany_top_out[7] chany_top_out[8] 0
*RES
1 *520:X chany_top_out[8] 19.8729 
*END

*D_NET *39 0.00100584
*CONN
*P left_grid_right_width_0_height_0_subtile_0__pin_I_1_ O
*I *521:X O *D sky130_fd_sc_hd__clkbuf_4
*CAP
1 left_grid_right_width_0_height_0_subtile_0__pin_I_1_ 0.000234862
2 *521:X 0.000234862
3 left_grid_right_width_0_height_0_subtile_0__pin_I_1_ left_grid_right_width_0_height_0_subtile_0__pin_I_5_ 0
4 left_grid_right_width_0_height_0_subtile_0__pin_I_1_ *140:14 1.92905e-05
5 chany_bottom_out[8] left_grid_right_width_0_height_0_subtile_0__pin_I_1_ 3.07455e-05
6 *485:A left_grid_right_width_0_height_0_subtile_0__pin_I_1_ 0.000405733
7 *487:A left_grid_right_width_0_height_0_subtile_0__pin_I_1_ 8.03485e-05
*RES
1 *521:X left_grid_right_width_0_height_0_subtile_0__pin_I_1_ 22.0125 
*END

*D_NET *40 0.00259905
*CONN
*P left_grid_right_width_0_height_0_subtile_0__pin_I_5_ O
*I *522:X O *D sky130_fd_sc_hd__clkbuf_4
*CAP
1 left_grid_right_width_0_height_0_subtile_0__pin_I_5_ 0.00102035
2 *522:X 0.00102035
3 left_grid_right_width_0_height_0_subtile_0__pin_I_5_ left_grid_right_width_0_height_0_subtile_0__pin_I_9_ 0.000306872
4 left_grid_right_width_0_height_0_subtile_0__pin_I_5_ *521:A 0
5 left_grid_right_width_0_height_0_subtile_0__pin_I_5_ *157:18 0.000178852
6 left_grid_right_width_0_height_0_subtile_0__pin_I_1_ left_grid_right_width_0_height_0_subtile_0__pin_I_5_ 0
7 *486:A left_grid_right_width_0_height_0_subtile_0__pin_I_5_ 7.26143e-05
8 *487:A left_grid_right_width_0_height_0_subtile_0__pin_I_5_ 0
*RES
1 *522:X left_grid_right_width_0_height_0_subtile_0__pin_I_5_ 27.2574 
*END

*D_NET *41 0.00211355
*CONN
*P left_grid_right_width_0_height_0_subtile_0__pin_I_9_ O
*I *523:X O *D sky130_fd_sc_hd__clkbuf_4
*CAP
1 left_grid_right_width_0_height_0_subtile_0__pin_I_9_ 0.00090334
2 *523:X 0.00090334
3 left_grid_right_width_0_height_0_subtile_0__pin_I_5_ left_grid_right_width_0_height_0_subtile_0__pin_I_9_ 0.000306872
4 *486:A left_grid_right_width_0_height_0_subtile_0__pin_I_9_ 0
5 *487:A left_grid_right_width_0_height_0_subtile_0__pin_I_9_ 0
*RES
1 *523:X left_grid_right_width_0_height_0_subtile_0__pin_I_9_ 26.5616 
*END

*D_NET *42 0.00692903
*CONN
*P prog_clk I
*I *471:A I *D sky130_fd_sc_hd__clkbuf_16
*CAP
1 prog_clk 0.00178023
2 *471:A 0.00178023
3 *471:A *401:A 1.41029e-05
4 *471:A *422:A 0.000529161
5 *471:A *442:A 0.000191877
6 *471:A *457:A 0.000527099
7 *471:A *457:TE_B 5.95378e-05
8 *471:A *465:A 0.000250201
9 *471:A *505:A 3.09775e-05
10 *471:A *506:A 0.00068921
11 *471:A *509:A 0.000139907
12 *471:A *57:24 0.000407382
13 *471:A *106:10 0.000125731
14 *471:A *169:10 0.000212923
15 chany_bottom_out[0] *471:A 0
16 *497:A *471:A 0.000190464
*RES
1 prog_clk *471:A 48.6414 
*END

*D_NET *43 0.000913276
*CONN
*P right_grid_left_width_0_height_0_subtile_0__pin_outpad_0_ O
*I *524:X O *D sky130_fd_sc_hd__buf_2
*CAP
1 right_grid_left_width_0_height_0_subtile_0__pin_outpad_0_ 0.000423383
2 *524:X 0.000423383
3 right_grid_left_width_0_height_0_subtile_0__pin_outpad_0_ *524:A 1.28585e-05
4 chany_top_out[8] right_grid_left_width_0_height_0_subtile_0__pin_outpad_0_ 0
5 *483:A right_grid_left_width_0_height_0_subtile_0__pin_outpad_0_ 5.36514e-05
6 *493:A right_grid_left_width_0_height_0_subtile_0__pin_outpad_0_ 0
*RES
1 *524:X right_grid_left_width_0_height_0_subtile_0__pin_outpad_0_ 18.9995 
*END

*D_NET *46 0.00166769
*CONN
*I *363:A I *D sky130_fd_sc_hd__clkbuf_1
*I *362:X O *D sky130_fd_sc_hd__clkbuf_1
*CAP
1 *363:A 0.000463257
2 *362:X 0.000463257
3 *363:A *401:A 5.14943e-05
4 *363:A *454:TE_B 0
5 *363:A *457:TE_B 2.30245e-05
6 *363:A *505:A 0.000528286
7 *363:A *506:A 1.26314e-05
8 *363:A *122:12 0.000125736
*RES
1 *362:X *363:A 37.1536 
*END

*D_NET *47 0.000817194
*CONN
*I *367:A I *D sky130_fd_sc_hd__clkbuf_1
*I *366:X O *D sky130_fd_sc_hd__clkbuf_1
*CAP
1 *367:A 0.000297102
2 *366:X 0.000297102
3 *367:A *366:A 0.000175159
4 *367:A *100:14 4.78308e-05
*RES
1 *366:X *367:A 23.6893 
*END

*D_NET *48 0.00107544
*CONN
*I *369:A I *D sky130_fd_sc_hd__clkbuf_1
*I *368:X O *D sky130_fd_sc_hd__clkbuf_1
*CAP
1 *369:A 0.000363288
2 *368:X 0.000363288
3 *369:A *411:D 9.93955e-05
4 *369:A *451:Z 0
5 *369:A *454:Z 9.99853e-05
6 *369:A *457:TE_B 0.000149488
7 *369:A *101:53 0
*RES
1 *368:X *369:A 34.3857 
*END

*D_NET *49 0.00134861
*CONN
*I *374:A I *D sky130_fd_sc_hd__clkbuf_1
*I *373:X O *D sky130_fd_sc_hd__clkbuf_1
*CAP
1 *374:A 0.000407869
2 *373:X 0.000407869
3 *374:A *375:A 3.57366e-05
4 *374:A *427:A 6.95205e-05
5 *374:A *430:A 8.34593e-05
6 *374:A *441:TE_B 7.09928e-05
7 *374:A *447:A 0
8 *374:A *516:A 0.000273167
*RES
1 *373:X *374:A 36.7429 
*END

*D_NET *50 0.000329415
*CONN
*I *377:A I *D sky130_fd_sc_hd__clkbuf_1
*I *376:X O *D sky130_fd_sc_hd__clkbuf_1
*CAP
1 *377:A 9.03279e-05
2 *376:X 9.03279e-05
3 *377:A *372:A 0
4 *377:A *376:A 5.38444e-06
5 *377:A *97:46 0.000143375
*RES
1 *376:X *377:A 20.6893 
*END

*D_NET *51 0.000726578
*CONN
*I *379:A I *D sky130_fd_sc_hd__clkbuf_1
*I *378:X O *D sky130_fd_sc_hd__clkbuf_1
*CAP
1 *379:A 0.000193908
2 *378:X 0.000193908
3 *379:A *427:A 5.65955e-05
4 *379:A *438:TE_B 7.84458e-05
5 *379:A *445:TE_B 0.00011353
6 *379:A *517:A 1.7886e-05
7 *379:A *519:A 7.23045e-05
*RES
1 *378:X *379:A 32.0821 
*END

*D_NET *52 0.000192294
*CONN
*I *383:A I *D sky130_fd_sc_hd__clkbuf_1
*I *382:X O *D sky130_fd_sc_hd__clkbuf_1
*CAP
1 *383:A 6.66139e-05
2 *382:X 6.66139e-05
3 *383:A *97:34 5.90666e-05
*RES
1 *382:X *383:A 19.8679 
*END

*D_NET *53 0.000159506
*CONN
*I *385:A I *D sky130_fd_sc_hd__clkbuf_1
*I *384:X O *D sky130_fd_sc_hd__clkbuf_1
*CAP
1 *385:A 4.62844e-05
2 *384:X 4.62844e-05
3 *385:A *372:A 1.04232e-05
4 *385:A *507:A 4.25111e-05
5 *385:A *97:46 1.40034e-05
*RES
1 *384:X *385:A 19.8679 
*END

*D_NET *54 0.000572896
*CONN
*I *387:A I *D sky130_fd_sc_hd__clkbuf_1
*I *386:X O *D sky130_fd_sc_hd__clkbuf_1
*CAP
1 *387:A 0.000107642
2 *386:X 0.000107642
3 *387:A *435:TE_B 0.000161834
4 *387:A *96:27 5.90995e-05
5 *387:A *98:8 9.7759e-06
6 *387:A *98:19 0.000126903
*RES
1 *386:X *387:A 22.1714 
*END

*D_NET *55 0.000784915
*CONN
*I *343:A I *D sky130_fd_sc_hd__clkbuf_1
*I *342:X O *D sky130_fd_sc_hd__clkbuf_1
*CAP
1 *343:A 0.000220835
2 *342:X 0.000220835
3 *343:A *342:A 0
4 *343:A *400:A 5.99551e-05
5 *343:A *461:A 0.000140719
6 *343:A *461:Z 3.28379e-05
7 *343:A *157:18 3.1367e-05
8 *343:A *171:26 7.83659e-05
*RES
1 *342:X *343:A 31.5643 
*END

*D_NET *56 0.000783377
*CONN
*I *345:A I *D sky130_fd_sc_hd__clkbuf_1
*I *344:X O *D sky130_fd_sc_hd__clkbuf_1
*CAP
1 *345:A 0.000202115
2 *344:X 0.000202115
3 *345:A *466:TE_B 5.68913e-05
4 *345:A *86:20 0
5 *345:A *142:18 0.000322256
*RES
1 *344:X *345:A 31.975 
*END

*D_NET *57 0.00457555
*CONN
*I *349:A I *D sky130_fd_sc_hd__clkbuf_1
*I *348:X O *D sky130_fd_sc_hd__clkbuf_1
*CAP
1 *349:A 6.5445e-05
2 *348:X 0.0011082
3 *57:24 0.00117364
4 *349:A *464:A 5.36426e-05
5 *57:24 *422:A 1.50181e-05
6 *57:24 *437:A 0.00018779
7 *57:24 *449:TE_B 0.000368917
8 *57:24 *454:Z 5.33005e-05
9 *57:24 *457:TE_B 0.000313458
10 *57:24 *465:A 0.000250201
11 *57:24 *507:A 0.00022489
12 *57:24 *509:A 5.56943e-05
13 *57:24 *101:53 0.000197984
14 *57:24 *130:12 0
15 chany_bottom_out[6] *349:A 9.99853e-05
16 *471:A *57:24 0.000407382
*RES
1 *348:X *57:24 49.925 
2 *57:24 *349:A 11.0679 
*END

*D_NET *58 0.00561751
*CONN
*I *351:A I *D sky130_fd_sc_hd__clkbuf_1
*I *350:X O *D sky130_fd_sc_hd__clkbuf_1
*CAP
1 *351:A 0
2 *350:X 0.00162519
3 *58:22 0.00162519
4 *58:22 *341:A 3.12359e-05
5 *58:22 *350:A 1.74352e-05
6 *58:22 *400:A 0.000224583
7 *58:22 *413:CLK 0.000484923
8 *58:22 *415:CLK 0.000607069
9 *58:22 *466:A 7.11463e-05
10 *58:22 *466:TE_B 3.18676e-05
11 *58:22 *468:TE_B 0.000135028
12 *58:22 *469:TE_B 9.48089e-05
13 *58:22 *88:16 0
14 *58:22 *95:54 0.00022432
15 *58:22 *105:8 9.83388e-05