*SPEF "ieee 1481-1999"
*DESIGN "cby_1__1_"
*DATE "11:11:11 Fri 11 11, 1111"
*VENDOR "OpenRCX"
*PROGRAM "Parallel Extraction"
*VERSION "1.0"
*DESIGN_FLOW "NAME_SCOPE LOCAL" "PIN_CAP NONE"
*DIVIDER /
*DELIMITER :
*BUS_DELIMITER []
*T_UNIT 1 NS
*C_UNIT 1 PF
*R_UNIT 1 OHM
*L_UNIT 1 HENRY

*NAME_MAP
*1 ccff_head
*2 ccff_tail
*3 chany_bottom_in[0]
*4 chany_bottom_in[1]
*5 chany_bottom_in[2]
*6 chany_bottom_in[3]
*7 chany_bottom_in[4]
*8 chany_bottom_in[5]
*9 chany_bottom_in[6]
*10 chany_bottom_in[7]
*11 chany_bottom_in[8]
*12 chany_bottom_out[0]
*13 chany_bottom_out[1]
*14 chany_bottom_out[2]
*15 chany_bottom_out[3]
*16 chany_bottom_out[4]
*17 chany_bottom_out[5]
*18 chany_bottom_out[6]
*19 chany_bottom_out[7]
*20 chany_bottom_out[8]
*21 chany_top_in[0]
*22 chany_top_in[1]
*23 chany_top_in[2]
*24 chany_top_in[3]
*25 chany_top_in[4]
*26 chany_top_in[5]
*27 chany_top_in[6]
*28 chany_top_in[7]
*29 chany_top_in[8]
*30 chany_top_out[0]
*31 chany_top_out[1]
*32 chany_top_out[2]
*33 chany_top_out[3]
*34 chany_top_out[4]
*35 chany_top_out[5]
*36 chany_top_out[6]
*37 chany_top_out[7]
*38 chany_top_out[8]
*39 left_grid_right_width_0_height_0_subtile_0__pin_I_1_
*40 left_grid_right_width_0_height_0_subtile_0__pin_I_5_
*41 left_grid_right_width_0_height_0_subtile_0__pin_I_9_
*42 prog_clk
*43 right_grid_left_width_0_height_0_subtile_0__pin_I_3_
*44 right_grid_left_width_0_height_0_subtile_0__pin_I_7_
*47 _000_
*48 _001_
*49 _002_
*50 _003_
*51 _004_
*52 _005_
*53 _006_
*54 _007_
*55 _008_
*56 _009_
*57 _010_
*58 _011_
*59 _012_
*60 _013_
*61 _014_
*62 _015_
*63 _016_
*64 _017_
*65 _018_
*66 _019_
*67 _020_
*68 _021_
*69 _022_
*70 _023_
*71 _024_
*72 _025_
*73 _026_
*74 _027_
*75 _028_
*76 _029_
*77 _030_
*78 _031_
*79 _032_
*80 _033_
*81 _034_
*82 _035_
*83 _036_
*84 _037_
*85 _038_
*86 _039_
*87 _040_
*88 _041_
*89 _042_
*90 _043_
*91 _044_
*92 _045_
*93 _046_
*94 _047_
*95 _048_
*96 _049_
*97 _050_
*98 _051_
*99 _052_
*100 _053_
*101 clknet_0_prog_clk
*102 clknet_1_0__leaf_prog_clk
*103 clknet_1_1__leaf_prog_clk
*104 mem_left_ipin_0\.DFF_0_\.Q
*105 mem_left_ipin_0\.DFF_1_\.Q
*106 mem_left_ipin_0\.DFF_2_\.Q
*107 mem_left_ipin_1\.DFF_0_\.Q
*108 mem_left_ipin_1\.DFF_1_\.Q
*109 mem_right_ipin_0\.DFF_0_\.Q
*110 mem_right_ipin_0\.DFF_1_\.Q
*111 mem_right_ipin_0\.DFF_2_\.Q
*112 mem_right_ipin_1\.DFF_0_\.Q
*113 mem_right_ipin_1\.DFF_1_\.Q
*114 mem_right_ipin_2\.DFF_0_\.Q
*115 mux_left_ipin_0\.INVTX1_0_\.out
*116 mux_left_ipin_0\.INVTX1_1_\.out
*117 mux_left_ipin_0\.INVTX1_2_\.out
*118 mux_left_ipin_0\.INVTX1_3_\.out
*119 mux_left_ipin_0\.INVTX1_4_\.out
*120 mux_left_ipin_0\.INVTX1_5_\.out
*121 mux_left_ipin_0\.mux_l1_in_0_\.TGATE_0_\.out
*122 mux_left_ipin_0\.mux_l1_in_1_\.TGATE_0_\.out
*123 mux_left_ipin_0\.mux_l1_in_2_\.TGATE_0_\.out
*124 mux_left_ipin_0\.mux_l2_in_0_\.TGATE_0_\.out
*125 mux_left_ipin_0\.mux_l2_in_1_\.TGATE_0_\.out
*126 mux_left_ipin_0\.mux_l3_in_0_\.TGATE_0_\.out
*127 mux_left_ipin_1\.INVTX1_0_\.out
*128 mux_left_ipin_1\.INVTX1_1_\.out
*129 mux_left_ipin_1\.mux_l1_in_0_\.TGATE_0_\.out
*130 mux_left_ipin_1\.mux_l2_in_0_\.TGATE_0_\.out
*131 mux_right_ipin_0\.INVTX1_2_\.out
*132 mux_right_ipin_0\.INVTX1_3_\.out
*133 mux_right_ipin_0\.INVTX1_4_\.out
*134 mux_right_ipin_0\.INVTX1_5_\.out
*135 mux_right_ipin_0\.mux_l1_in_0_\.TGATE_0_\.out
*136 mux_right_ipin_0\.mux_l1_in_1_\.TGATE_0_\.out
*137 mux_right_ipin_0\.mux_l1_in_2_\.TGATE_0_\.out
*138 mux_right_ipin_0\.mux_l2_in_0_\.TGATE_0_\.out
*139 mux_right_ipin_0\.mux_l2_in_1_\.TGATE_0_\.out
*140 mux_right_ipin_0\.mux_l3_in_0_\.TGATE_0_\.out
*141 mux_right_ipin_1\.INVTX1_0_\.out
*142 mux_right_ipin_1\.INVTX1_1_\.out
*143 mux_right_ipin_1\.mux_l1_in_0_\.TGATE_0_\.out
*144 mux_right_ipin_1\.mux_l2_in_0_\.TGATE_0_\.out
*145 mux_right_ipin_2\.mux_l1_in_0_\.TGATE_0_\.out
*146 mux_right_ipin_2\.mux_l2_in_0_\.TGATE_0_\.out
*147 net1
*148 net10
*149 net11
*150 net12
*151 net13
*152 net14
*153 net15
*154 net16
*155 net17
*156 net18
*157 net19
*158 net2
*159 net20
*160 net21
*161 net22
*162 net23
*163 net24
*164 net25
*165 net26
*166 net27
*167 net28
*168 net29
*169 net3
*170 net30
*171 net31
*172 net32
*173 net33
*174 net34
*175 net35
*176 net36
*177 net37
*178 net38
*179 net39
*180 net4
*181 net40
*182 net41
*183 net42
*184 net43
*185 net44
*186 net45
*187 net46
*188 net47
*189 net48
*190 net49
*191 net5
*192 net50
*193 net51
*194 net52
*195 net53
*196 net54
*197 net55
*198 net56
*199 net57
*200 net58
*201 net59
*202 net6
*203 net7
*204 net8
*205 net9
*206 FILLER_0_0_13
*207 FILLER_0_0_27
*208 FILLER_0_0_32
*209 FILLER_0_0_37
*210 FILLER_0_0_45
*211 FILLER_0_0_50
*212 FILLER_0_0_57
*213 FILLER_0_0_63
*214 FILLER_0_0_71
*215 FILLER_0_0_76
*216 FILLER_0_0_80
*217 FILLER_0_0_85
*218 FILLER_0_0_9
*219 FILLER_0_0_92
*220 FILLER_0_10_26
*221 FILLER_0_10_37
*222 FILLER_0_10_47
*223 FILLER_0_10_53
*224 FILLER_0_10_76
*225 FILLER_0_10_80
*226 FILLER_0_10_85
*227 FILLER_0_10_9
*228 FILLER_0_10_98
*229 FILLER_0_11_19
*230 FILLER_0_11_55
*231 FILLER_0_11_73
*232 FILLER_0_11_9
*233 FILLER_0_11_95
*234 FILLER_0_12_23
*235 FILLER_0_12_3
*236 FILLER_0_12_48
*237 FILLER_0_12_81
*238 FILLER_0_12_85
*239 FILLER_0_13_101
*240 FILLER_0_13_29
*241 FILLER_0_13_3
*242 FILLER_0_13_57
*243 FILLER_0_13_67
*244 FILLER_0_13_77
*245 FILLER_0_13_85
*246 FILLER_0_13_91
*247 FILLER_0_1_101
*248 FILLER_0_1_13
*249 FILLER_0_1_32
*250 FILLER_0_1_44
*251 FILLER_0_1_57
*252 FILLER_0_1_6
*253 FILLER_0_1_69
*254 FILLER_0_1_81
*255 FILLER_0_2_25
*256 FILLER_0_2_32
*257 FILLER_0_2_38
*258 FILLER_0_2_53
*259 FILLER_0_2_68
*260 FILLER_0_2_80
*261 FILLER_0_2_85
*262 FILLER_0_2_9
*263 FILLER_0_3_101
*264 FILLER_0_3_12
*265 FILLER_0_3_28
*266 FILLER_0_3_54
*267 FILLER_0_3_57
*268 FILLER_0_3_76
*269 FILLER_0_4_101
*270 FILLER_0_5_101
*271 FILLER_0_5_36
*272 FILLER_0_5_9
*273 FILLER_0_6_12
*274 FILLER_0_6_24
*275 FILLER_0_6_32
*276 FILLER_0_6_49
*277 FILLER_0_6_57
*278 FILLER_0_6_64
*279 FILLER_0_6_74
*280 FILLER_0_7_26
*281 FILLER_0_7_43
*282 FILLER_0_7_68
*283 FILLER_0_7_87
*284 FILLER_0_8_19
*285 FILLER_0_8_79
*286 FILLER_0_9_102
*287 FILLER_0_9_45
*288 FILLER_0_9_82
*289 FILLER_0_9_87
*290 PHY_0
*291 PHY_1
*292 PHY_10
*293 PHY_11
*294 PHY_12
*295 PHY_13
*296 PHY_14
*297 PHY_15
*298 PHY_16
*299 PHY_17
*300 PHY_18
*301 PHY_19
*302 PHY_2
*303 PHY_20
*304 PHY_21
*305 PHY_22
*306 PHY_23
*307 PHY_24
*308 PHY_25
*309 PHY_26
*310 PHY_27
*311 PHY_3
*312 PHY_4
*313 PHY_5
*314 PHY_6
*315 PHY_7
*316 PHY_8
*317 PHY_9
*318 TAP_28
*319 TAP_29
*320 TAP_30
*321 TAP_31
*322 TAP_32
*323 TAP_33
*324 TAP_34
*325 TAP_35
*326 TAP_36
*327 TAP_37
*328 TAP_38
*329 TAP_39
*330 TAP_40
*331 TAP_41
*332 TAP_42
*333 TAP_43
*334 TAP_44
*335 TAP_45
*336 TAP_46
*337 TAP_47
*338 TAP_48
*339 TAP_49
*340 TAP_50
*341 TAP_51
*342 _059_
*343 _060_
*344 _061_
*345 _062_
*346 _063_
*347 _064_
*348 _065_
*349 _066_
*350 _067_
*351 _068_
*352 _069_
*353 _070_
*354 _071_
*355 _072_
*356 _073_
*357 _074_
*358 _075_
*359 _076_
*360 _077_
*361 _078_
*362 _079_
*363 _080_
*364 _081_
*365 _082_
*366 _083_
*367 _084_
*368 _085_
*369 _086_
*370 _087_
*371 _088_
*372 _089_
*373 _090_
*374 _091_
*375 _092_
*376 _093_
*377 _094_
*378 _095_
*379 _096_
*380 _097_
*381 _098_
*382 _099_
*383 _100_
*384 _101_
*385 _102_
*386 _103_
*387 _104_
*388 _105_
*389 _106_
*390 _107_
*391 _108_
*392 _109_
*393 _110_
*394 _111_
*395 _112_
*396 _113_
*397 _114_
*398 _115_
*399 _116_
*400 _117_
*401 _118_
*402 _119_
*403 _120_
*404 _121_
*405 _122_
*406 _123_
*407 _124_
*408 _125_
*409 _126_
*410 _127_
*411 _128_
*412 _129_
*413 _130_
*414 _131_
*415 _132_
*416 _133_
*417 _134_
*418 _135_
*419 _136_
*420 _137_
*421 _138_
*422 _139_
*423 _140_
*424 _141_
*425 _142_
*426 _143_
*427 _149_
*428 _150_
*429 _151_
*430 _152_
*431 _153_
*432 _154_
*433 _155_
*434 _156_
*435 _157_
*436 _158_
*437 _159_
*438 _160_
*439 _161_
*440 _162_
*441 _163_
*442 _164_
*443 _165_
*444 _166_
*445 _167_
*446 _167__44
*447 _168_
*448 _169_
*449 _170_
*450 _171_
*451 _172_
*452 _173_
*453 _174_
*454 _175_
*455 _176_
*456 _177_
*457 _178_
*458 _179_
*459 _180_
*460 _180__45
*461 _181_
*462 _182_
*463 _183_
*464 _184_
*465 _185_
*466 _186_
*467 _187_
*468 _188_
*469 _189_
*470 _190_
*471 _191_
*472 _191__46
*473 _192_
*474 _193_
*475 _194_
*476 _195_
*477 _195__47
*478 _196_
*479 _197_
*480 _198_
*481 _199_
*482 _199__48
*483 _200_
*484 _201_
*485 _202_
*486 clkbuf_0_prog_clk
*487 clkbuf_1_0__f_prog_clk
*488 clkbuf_1_1__f_prog_clk
*489 hold1
*490 hold10
*491 hold11
*492 hold2
*493 hold3
*494 hold4
*495 hold5
*496 hold6
*497 hold7
*498 hold8
*499 hold9
*500 input1
*501 input10
*502 input11
*503 input12
*504 input13
*505 input14
*506 input15
*507 input16
*508 input17
*509 input18
*510 input19
*511 input2
*512 input3
*513 input4
*514 input5
*515 input6
*516 input7
*517 input8
*518 input9
*519 output20
*520 output21
*521 output22
*522 output23
*523 output24
*524 output25
*525 output26
*526 output27
*527 output28
*528 output29
*529 output30
*530 output31
*531 output32
*532 output33
*533 output34
*534 output35
*535 output36
*536 output37
*537 output38
*538 output39
*539 output40
*540 output41
*541 output42
*542 output43

*PORTS
ccff_head I
ccff_tail O
chany_bottom_in[0] I
chany_bottom_in[1] I
chany_bottom_in[2] I
chany_bottom_in[3] I
chany_bottom_in[4] I
chany_bottom_in[5] I
chany_bottom_in[6] I
chany_bottom_in[7] I
chany_bottom_in[8] I
chany_bottom_out[0] O
chany_bottom_out[1] O
chany_bottom_out[2] O
chany_bottom_out[3] O
chany_bottom_out[4] O
chany_bottom_out[5] O
chany_bottom_out[6] O
chany_bottom_out[7] O
chany_bottom_out[8] O
chany_top_in[0] I
chany_top_in[1] I
chany_top_in[2] I
chany_top_in[3] I
chany_top_in[4] I
chany_top_in[5] I
chany_top_in[6] I
chany_top_in[7] I
chany_top_in[8] I
chany_top_out[0] O
chany_top_out[1] O
chany_top_out[2] O
chany_top_out[3] O
chany_top_out[4] O
chany_top_out[5] O
chany_top_out[6] O
chany_top_out[7] O
chany_top_out[8] O
left_grid_right_width_0_height_0_subtile_0__pin_I_1_ O
left_grid_right_width_0_height_0_subtile_0__pin_I_5_ O
left_grid_right_width_0_height_0_subtile_0__pin_I_9_ O
prog_clk I
right_grid_left_width_0_height_0_subtile_0__pin_I_3_ O
right_grid_left_width_0_height_0_subtile_0__pin_I_7_ O

*D_NET *1 0.00179467
*CONN
*P ccff_head I
*I *500:A I *D sky130_fd_sc_hd__clkbuf_1
*CAP
1 ccff_head 0.000737564
2 *500:A 0.000737564
3 *500:A ccff_tail 0
4 *500:A right_grid_left_width_0_height_0_subtile_0__pin_I_7_ 0.000102833
5 *500:A *510:A 0.000128472
6 *500:A *519:A 3.13687e-05
7 *500:A *157:12 5.68722e-05
8 *500:A *184:20 0
*RES
1 ccff_head *500:A 25.549 
*END

*D_NET *2 0.00117333
*CONN
*P ccff_tail O
*I *519:X O *D sky130_fd_sc_hd__clkbuf_4
*CAP
1 ccff_tail 0.000586664
2 *519:X 0.000586664
3 ccff_tail *509:A 0
4 ccff_tail *510:A 0
5 *500:A ccff_tail 0
*RES
1 *519:X ccff_tail 23.0527 
*END

*D_NET *3 0.00373942
*CONN
*P chany_bottom_in[0] I
*I *511:A I *D sky130_fd_sc_hd__buf_1
*CAP
1 chany_bottom_in[0] 0.00144595
2 *511:A 0.00144595
3 *511:A chany_bottom_out[0] 2.18999e-05
4 *511:A *400:A 3.43995e-05
5 *511:A *512:A 0
6 *511:A *513:A 0
7 *511:A *514:A 0
8 *511:A *116:14 0.00079122
9 *511:A *127:30 0
*RES
1 chany_bottom_in[0] *511:A 44.925 
*END

*D_NET *4 0.00127158
*CONN
*P chany_bottom_in[1] I
*I *512:A I *D sky130_fd_sc_hd__buf_1
*CAP
1 chany_bottom_in[1] 0.000574035
2 *512:A 0.000574035
3 *512:A *42:15 0.000123505
4 *512:A *116:14 0
5 *511:A *512:A 0
*RES
1 chany_bottom_in[1] *512:A 33.8357 
*END

*D_NET *5 0.000956206
*CONN
*P chany_bottom_in[2] I
*I *513:A I *D sky130_fd_sc_hd__buf_1
*CAP
1 chany_bottom_in[2] 0.000391004
2 *513:A 0.000391004
3 *513:A *521:A 5.59013e-05
4 *513:A *42:15 0.000108046
5 *513:A *127:30 1.02504e-05
6 *511:A *513:A 0
*RES
1 chany_bottom_in[2] *513:A 21.9607 
*END

*D_NET *6 0.000868101
*CONN
*P chany_bottom_in[3] I
*I *514:A I *D sky130_fd_sc_hd__buf_1
*CAP
1 chany_bottom_in[3] 0.000426965
2 *514:A 0.000426965
3 *514:A *400:A 1.41706e-05
4 *511:A *514:A 0
*RES
1 chany_bottom_in[3] *514:A 21.8357 
*END

*D_NET *7 0.0008378
*CONN
*P chany_bottom_in[4] I
*I *515:A I *D sky130_fd_sc_hd__buf_1
*CAP
1 chany_bottom_in[4] 0.0004189
2 *515:A 0.0004189
*RES
1 chany_bottom_in[4] *515:A 21.8357 
*END

*D_NET *8 0.000830871
*CONN
*P chany_bottom_in[5] I
*I *516:A I *D sky130_fd_sc_hd__clkbuf_1
*CAP
1 chany_bottom_in[5] 0.00038754
2 *516:A 0.00038754
3 *516:A *447:A 5.57914e-05
*RES
1 chany_bottom_in[5] *516:A 21.8357 
*END

*D_NET *9 0.000944121
*CONN
*P chany_bottom_in[6] I
*I *517:A I *D sky130_fd_sc_hd__buf_1
*CAP
1 chany_bottom_in[6] 0.000462415
2 *517:A 0.000462415
3 *517:A *447:A 0
4 *517:A *204:14 1.92905e-05
*RES
1 chany_bottom_in[6] *517:A 22.6571 
*END

*D_NET *10 0.000829072
*CONN
*P chany_bottom_in[7] I
*I *518:A I *D sky130_fd_sc_hd__clkbuf_1
*CAP
1 chany_bottom_in[7] 0.000414536
2 *518:A 0.000414536
3 *518:A chany_top_out[1] 0
4 *518:A *529:A 0
*RES
1 chany_bottom_in[7] *518:A 21.9607 
*END

*D_NET *11 0.00229082
*CONN
*P chany_bottom_in[8] I
*I *501:A I *D sky130_fd_sc_hd__buf_1
*CAP
1 chany_bottom_in[8] 0.000717492
2 *501:A 0.000717492
3 *501:A chany_top_out[0] 0
4 *501:A chany_top_out[1] 7.58311e-05
5 *501:A chany_top_out[2] 1.05524e-05
6 *501:A *529:A 8.02e-05
7 *501:A *530:A 0.000357856
8 *501:A *148:20 5.71472e-05
9 *501:A *177:20 0.000274245
*RES
1 chany_bottom_in[8] *501:A 29.7464 
*END

*D_NET *12 0.000558555
*CONN
*P chany_bottom_out[0] O
*I *520:X O *D sky130_fd_sc_hd__clkbuf_4
*CAP
1 chany_bottom_out[0] 0.000268328
2 *520:X 0.000268328
3 chany_bottom_out[0] chany_bottom_out[1] 0
4 chany_bottom_out[0] *42:15 0
5 *511:A chany_bottom_out[0] 2.18999e-05
*RES
1 *520:X chany_bottom_out[0] 20.2447 
*END

*D_NET *13 0.000654824
*CONN
*P chany_bottom_out[1] O
*I *521:X O *D sky130_fd_sc_hd__clkbuf_4
*CAP
1 chany_bottom_out[1] 0.000327412
2 *521:X 0.000327412
3 chany_bottom_out[1] chany_bottom_out[2] 0
4 chany_bottom_out[1] *109:42 0
5 chany_bottom_out[0] chany_bottom_out[1] 0
*RES
1 *521:X chany_bottom_out[1] 21.4589 
*END

*D_NET *14 0.000634974
*CONN
*P chany_bottom_out[2] O
*I *522:X O *D sky130_fd_sc_hd__clkbuf_4
*CAP
1 chany_bottom_out[2] 0.000317487
2 *522:X 0.000317487
3 chany_bottom_out[2] chany_bottom_out[3] 0
4 chany_bottom_out[1] chany_bottom_out[2] 0
*RES
1 *522:X chany_bottom_out[2] 20.3518 
*END

*D_NET *15 0.000757521
*CONN
*P chany_bottom_out[3] O
*I *523:X O *D sky130_fd_sc_hd__clkbuf_4
*CAP
1 chany_bottom_out[3] 0.000378761
2 *523:X 0.000378761
3 chany_bottom_out[3] chany_bottom_out[4] 0
4 chany_bottom_out[3] *524:A 0
5 chany_bottom_out[3] *150:18 0
6 chany_bottom_out[2] chany_bottom_out[3] 0
*RES
1 *523:X chany_bottom_out[3] 21.5661 
*END

*D_NET *16 0.000576407
*CONN
*P chany_bottom_out[4] O
*I *524:X O *D sky130_fd_sc_hd__clkbuf_4
*CAP
1 chany_bottom_out[4] 0.000270588
2 *524:X 0.000270588
3 chany_bottom_out[4] chany_bottom_out[5] 0
4 chany_bottom_out[4] *524:A 2.06178e-05
5 chany_bottom_out[4] *150:18 1.46126e-05
6 chany_bottom_out[3] chany_bottom_out[4] 0
*RES
1 *524:X chany_bottom_out[4] 18.267 
*END

*D_NET *17 0.000478315
*CONN
*P chany_bottom_out[5] O
*I *525:X O *D sky130_fd_sc_hd__clkbuf_4
*CAP
1 chany_bottom_out[5] 0.000239158
2 *525:X 0.000239158
3 chany_bottom_out[5] chany_bottom_out[6] 0
4 chany_bottom_out[4] chany_bottom_out[5] 0
*RES
1 *525:X chany_bottom_out[5] 19.9411 
*END

*D_NET *18 0.000764587
*CONN
*P chany_bottom_out[6] O
*I *526:X O *D sky130_fd_sc_hd__clkbuf_4
*CAP
1 chany_bottom_out[6] 0.000382293
2 *526:X 0.000382293
3 chany_bottom_out[6] chany_bottom_out[7] 0
4 chany_bottom_out[6] *21:19 0
5 chany_bottom_out[6] *111:27 0
6 chany_bottom_out[6] *150:18 0
7 chany_bottom_out[5] chany_bottom_out[6] 0
*RES
1 *526:X chany_bottom_out[6] 22.6732 
*END

*D_NET *19 0.000764003
*CONN
*P chany_bottom_out[7] O
*I *527:X O *D sky130_fd_sc_hd__clkbuf_4
*CAP
1 chany_bottom_out[7] 0.000344894
2 *527:X 0.000344894
3 chany_bottom_out[7] chany_bottom_out[8] 5.40617e-05
4 chany_bottom_out[7] *21:19 0
5 chany_bottom_out[7] *150:18 2.01525e-05
6 chany_bottom_out[6] chany_bottom_out[7] 0
*RES
1 *527:X chany_bottom_out[7] 18.8056 
*END

*D_NET *20 0.00112907
*CONN
*P chany_bottom_out[8] O
*I *528:X O *D sky130_fd_sc_hd__clkbuf_4
*CAP
1 chany_bottom_out[8] 0.000451228
2 *528:X 0.000451228
3 chany_bottom_out[8] left_grid_right_width_0_height_0_subtile_0__pin_I_1_ 0
4 chany_bottom_out[8] left_grid_right_width_0_height_0_subtile_0__pin_I_5_ 2.89016e-05
5 chany_bottom_out[8] *539:A 0.000143651
6 chany_bottom_out[8] *21:19 0
7 chany_bottom_out[8] *150:18 0
8 chany_bottom_out[7] chany_bottom_out[8] 5.40617e-05
*RES
1 *528:X chany_bottom_out[8] 23.8709 
*END

*D_NET *21 0.00424533
*CONN
*P chany_top_in[0] I
*I *502:A I *D sky130_fd_sc_hd__buf_1
*CAP
1 chany_top_in[0] 0.00172915
2 *502:A 0
3 *21:19 0.00172915
4 *21:19 left_grid_right_width_0_height_0_subtile_0__pin_I_1_ 1.01912e-05
5 *21:19 left_grid_right_width_0_height_0_subtile_0__pin_I_5_ 0
6 *21:19 *347:A 0
7 *21:19 *402:A 1.00375e-05
8 *21:19 *412:A 7.78065e-06
9 *21:19 *432:A 2.94103e-05
10 *21:19 *458:A 6.70531e-05
11 *21:19 *458:TE_B 0.000144318
12 *21:19 *458:Z 9.71197e-05
13 *21:19 *478:A 2.89016e-05
14 *21:19 *527:A 3.80277e-05
15 *21:19 *149:20 0.000100009
16 *21:19 *150:18 0
17 *21:19 *152:14 0.000105998
18 *21:19 *157:38 0.000148189
19 chany_bottom_out[6] *21:19 0
20 chany_bottom_out[7] *21:19 0
21 chany_bottom_out[8] *21:19 0
*RES
1 chany_top_in[0] *21:19 43.7143 
2 *21:19 *502:A 9.3 
*END

*D_NET *22 0.00120561
*CONN
*P chany_top_in[1] I
*I *503:A I *D sky130_fd_sc_hd__buf_1
*CAP
1 chany_top_in[1] 0.000531889
2 *503:A 0.000531889
3 *503:A left_grid_right_width_0_height_0_subtile_0__pin_I_1_ 0.00014183
4 *503:A left_grid_right_width_0_height_0_subtile_0__pin_I_5_ 0
5 *503:A left_grid_right_width_0_height_0_subtile_0__pin_I_9_ 0
*RES
1 chany_top_in[1] *503:A 24.0143 
*END

*D_NET *23 0.00117086
*CONN
*P chany_top_in[2] I
*I *504:A I *D sky130_fd_sc_hd__buf_1
*CAP
1 chany_top_in[2] 0.000491911
2 *504:A 0.000491911
3 *504:A left_grid_right_width_0_height_0_subtile_0__pin_I_9_ 0
4 *504:A *540:A 0
5 *504:A *152:14 0.000187041
*RES
1 chany_top_in[2] *504:A 23.8536 
*END

*D_NET *24 0.00103079
*CONN
*P chany_top_in[3] I
*I *505:A I *D sky130_fd_sc_hd__buf_1
*CAP
1 chany_top_in[3] 0.000452683
2 *505:A 0.000452683
3 *505:A *347:A 0
4 *505:A *540:A 7.04681e-05
5 *505:A *152:14 5.49544e-05
*RES
1 chany_top_in[3] *505:A 22.7821 
*END

*D_NET *25 0.000950887
*CONN
*P chany_top_in[4] I
*I *506:A I *D sky130_fd_sc_hd__buf_1
*CAP
1 chany_top_in[4] 0.000475443
2 *506:A 0.000475443
*RES
1 chany_top_in[4] *506:A 24.3714 
*END

*D_NET *26 0.00100818
*CONN
*P chany_top_in[5] I
*I *507:A I *D sky130_fd_sc_hd__clkbuf_1
*CAP
1 chany_top_in[5] 0.000461738
2 *507:A 0.000461738
3 *507:A *413:A 1.32056e-05
4 *507:A *156:20 7.14934e-05
*RES
1 chany_top_in[5] *507:A 22.9071 
*END

*D_NET *27 0.000968286
*CONN
*P chany_top_in[6] I
*I *508:A I *D sky130_fd_sc_hd__buf_1
*CAP
1 chany_top_in[6] 0.000468209
2 *508:A 0.000468209
3 *508:A *156:20 3.18676e-05
*RES
1 chany_top_in[6] *508:A 23.0321 
*END

*D_NET *28 0.000790058
*CONN
*P chany_top_in[7] I
*I *509:A I *D sky130_fd_sc_hd__clkbuf_1
*CAP
1 chany_top_in[7] 0.000395029
2 *509:A 0.000395029
3 ccff_tail *509:A 0
*RES
1 chany_top_in[7] *509:A 21.425 
*END

*D_NET *29 0.00169831
*CONN
*P chany_top_in[8] I
*I *510:A I *D sky130_fd_sc_hd__buf_1
*CAP
1 chany_top_in[8] 0.000782036
2 *510:A 0.000782036
3 *510:A *519:A 5.7661e-06
4 ccff_tail *510:A 0
5 *500:A *510:A 0.000128472
*RES
1 chany_top_in[8] *510:A 28.5143 
*END

*D_NET *30 0.00115274
*CONN
*P chany_top_out[0] O
*I *529:X O *D sky130_fd_sc_hd__clkbuf_4
*CAP
1 chany_top_out[0] 0.000576369
2 *529:X 0.000576369
3 chany_top_out[0] chany_top_out[1] 0
4 *501:A chany_top_out[0] 0
*RES
1 *529:X chany_top_out[0] 24.73 
*END

*D_NET *31 0.00104071
*CONN
*P chany_top_out[1] O
*I *530:X O *D sky130_fd_sc_hd__buf_2
*CAP
1 chany_top_out[1] 0.000482437
2 *530:X 0.000482437
3 chany_top_out[1] chany_top_out[2] 0
4 chany_top_out[0] chany_top_out[1] 0
5 *501:A chany_top_out[1] 7.58311e-05
6 *518:A chany_top_out[1] 0
*RES
1 *530:X chany_top_out[1] 21.0559 
*END

*D_NET *32 0.00092598
*CONN
*P chany_top_out[2] O
*I *531:X O *D sky130_fd_sc_hd__clkbuf_4
*CAP
1 chany_top_out[2] 0.000433723
2 *531:X 0.000433723
3 chany_top_out[2] chany_top_out[3] 0
4 chany_top_out[2] *177:20 4.79811e-05
5 chany_top_out[1] chany_top_out[2] 0
6 *501:A chany_top_out[2] 1.05524e-05
*RES
1 *531:X chany_top_out[2] 20.142 
*END

*D_NET *33 0.00156181
*CONN
*P chany_top_out[3] O
*I *532:X O *D sky130_fd_sc_hd__buf_2
*CAP
1 chany_top_out[3] 0.000692591
2 *532:X 0.000692591
3 chany_top_out[3] chany_top_out[4] 0.000110768
4 chany_top_out[3] chany_top_out[5] 0
5 chany_top_out[3] *448:TE_B 6.27272e-06
6 chany_top_out[3] *497:A 5.95817e-05
7 chany_top_out[3] *57:18 0
8 chany_top_out[2] chany_top_out[3] 0
*RES
1 *532:X chany_top_out[3] 19.7637 
*END

*D_NET *34 0.00179435
*CONN
*P chany_top_out[4] O
*I *533:X O *D sky130_fd_sc_hd__clkbuf_4
*CAP
1 chany_top_out[4] 0.00075162
2 *533:X 0.00075162
3 chany_top_out[4] chany_top_out[5] 0
4 chany_top_out[4] *422:CLK 1.0562e-05
5 chany_top_out[4] *531:A 5.36426e-05
6 chany_top_out[4] *177:20 0.000116133
7 chany_top_out[3] chany_top_out[4] 0.000110768
*RES
1 *533:X chany_top_out[4] 25.8556 
*END

*D_NET *35 0.00270489
*CONN
*P chany_top_out[5] O
*I *534:X O *D sky130_fd_sc_hd__clkbuf_4
*CAP
1 chany_top_out[5] 0.00100477
2 *534:X 0.00100477
3 chany_top_out[5] chany_top_out[6] 0
4 chany_top_out[5] *378:A 0.000180777
5 chany_top_out[5] *448:Z 3.30352e-05
6 chany_top_out[5] *535:A 2.82982e-05
7 chany_top_out[5] *103:53 9.27418e-05
8 chany_top_out[5] *126:6 5.018e-05
9 chany_top_out[5] *177:20 9.98062e-05
10 chany_top_out[5] *184:20 0.00021052
11 chany_top_out[3] chany_top_out[5] 0
12 chany_top_out[4] chany_top_out[5] 0
*RES
1 *534:X chany_top_out[5] 28.2134 
*END

*D_NET *36 0.000844932
*CONN
*P chany_top_out[6] O
*I *535:X O *D sky130_fd_sc_hd__buf_2
*CAP
1 chany_top_out[6] 0.000363755
2 *535:X 0.000363755
3 chany_top_out[6] chany_top_out[7] 0
4 chany_top_out[6] *184:20 0.000117421
5 chany_top_out[5] chany_top_out[6] 0
*RES
1 *535:X chany_top_out[6] 19.4092 
*END

*D_NET *37 0.000904355
*CONN
*P chany_top_out[7] O
*I *536:X O *D sky130_fd_sc_hd__buf_2
*CAP
1 chany_top_out[7] 0.00044129
2 *536:X 0.00044129
3 chany_top_out[7] chany_top_out[8] 2.17758e-05
4 chany_top_out[7] *184:20 0
5 chany_top_out[6] chany_top_out[7] 0
*RES
1 *536:X chany_top_out[7] 21.2463 
*END

*D_NET *38 0.000797008
*CONN
*P chany_top_out[8] O
*I *537:X O *D sky130_fd_sc_hd__buf_2
*CAP
1 chany_top_out[8] 0.000357872
2 *537:X 0.000357872
3 chany_top_out[8] right_grid_left_width_0_height_0_subtile_0__pin_I_3_ 0
4 chany_top_out[8] *184:20 5.94884e-05
5 chany_top_out[7] chany_top_out[8] 2.17758e-05
*RES
1 *537:X chany_top_out[8] 19.4092 
*END

*D_NET *39 0.000828077
*CONN
*P left_grid_right_width_0_height_0_subtile_0__pin_I_1_ O
*I *538:X O *D sky130_fd_sc_hd__clkbuf_4
*CAP
1 left_grid_right_width_0_height_0_subtile_0__pin_I_1_ 0.000338028
2 *538:X 0.000338028
3 left_grid_right_width_0_height_0_subtile_0__pin_I_1_ left_grid_right_width_0_height_0_subtile_0__pin_I_5_ 0
4 chany_bottom_out[8] left_grid_right_width_0_height_0_subtile_0__pin_I_1_ 0
5 *503:A left_grid_right_width_0_height_0_subtile_0__pin_I_1_ 0.00014183
6 *21:19 left_grid_right_width_0_height_0_subtile_0__pin_I_1_ 1.01912e-05
*RES
1 *538:X left_grid_right_width_0_height_0_subtile_0__pin_I_1_ 21.5839 
*END

*D_NET *40 0.00142715
*CONN
*P left_grid_right_width_0_height_0_subtile_0__pin_I_5_ O
*I *539:X O *D sky130_fd_sc_hd__clkbuf_4
*CAP
1 left_grid_right_width_0_height_0_subtile_0__pin_I_5_ 0.000659943
2 *539:X 0.000659943
3 left_grid_right_width_0_height_0_subtile_0__pin_I_5_ left_grid_right_width_0_height_0_subtile_0__pin_I_9_ 0
4 left_grid_right_width_0_height_0_subtile_0__pin_I_5_ *150:18 7.83659e-05
5 chany_bottom_out[8] left_grid_right_width_0_height_0_subtile_0__pin_I_5_ 2.89016e-05
6 left_grid_right_width_0_height_0_subtile_0__pin_I_1_ left_grid_right_width_0_height_0_subtile_0__pin_I_5_ 0
7 *503:A left_grid_right_width_0_height_0_subtile_0__pin_I_5_ 0
8 *21:19 left_grid_right_width_0_height_0_subtile_0__pin_I_5_ 0
*RES
1 *539:X left_grid_right_width_0_height_0_subtile_0__pin_I_5_ 24.0766 
*END

*D_NET *41 0.00225102
*CONN
*P left_grid_right_width_0_height_0_subtile_0__pin_I_9_ O
*I *540:X O *D sky130_fd_sc_hd__clkbuf_4
*CAP
1 left_grid_right_width_0_height_0_subtile_0__pin_I_9_ 0.00103559
2 *540:X 0.00103559
3 left_grid_right_width_0_height_0_subtile_0__pin_I_9_ *402:A 8.07951e-05
4 left_grid_right_width_0_height_0_subtile_0__pin_I_9_ *540:A 9.90367e-05
5 left_grid_right_width_0_height_0_subtile_0__pin_I_5_ left_grid_right_width_0_height_0_subtile_0__pin_I_9_ 0
6 *503:A left_grid_right_width_0_height_0_subtile_0__pin_I_9_ 0
7 *504:A left_grid_right_width_0_height_0_subtile_0__pin_I_9_ 0
*RES
1 *540:X left_grid_right_width_0_height_0_subtile_0__pin_I_9_ 28.3467 
*END

*D_NET *42 0.00720395
*CONN
*P prog_clk I
*I *486:A I *D sky130_fd_sc_hd__clkbuf_16
*CAP
1 prog_clk 0.00180529
2 *486:A 0.00080924
3 *42:15 0.00261453
4 *486:A *373:A 3.22834e-05
5 *486:A *374:A 8.00806e-05
6 *486:A *411:A 0.00022561
7 *486:A *462:TE_B 0.000291993
8 *486:A *466:TE_B 2.26327e-05
9 *486:A *471:Z 0
10 *486:A *474:TE_B 0.000179656
11 *486:A *109:10 0.000167266
12 *486:A *202:12 0.000148196
13 *42:15 *400:A 1.94338e-05
14 *42:15 *408:A 0.000225638
15 *42:15 *434:A 5.41794e-05
16 *42:15 *521:A 2.16719e-05
17 *42:15 *127:30 1.13883e-05
18 *42:15 *158:18 0.000186662
19 *42:15 *160:32 7.6644e-05
20 chany_bottom_out[0] *42:15 0
21 *512:A *42:15 0.000123505
22 *513:A *42:15 0.000108046
*RES
1 prog_clk *42:15 32.011 
2 *42:15 *486:A 32.1393 
*END

*D_NET *43 0.000675944
*CONN
*P right_grid_left_width_0_height_0_subtile_0__pin_I_3_ O
*I *541:X O *D sky130_fd_sc_hd__clkbuf_4
*CAP
1 right_grid_left_width_0_height_0_subtile_0__pin_I_3_ 0.000333718
2 *541:X 0.000333718
3 right_grid_left_width_0_height_0_subtile_0__pin_I_3_ right_grid_left_width_0_height_0_subtile_0__pin_I_7_ 0
4 right_grid_left_width_0_height_0_subtile_0__pin_I_3_ *184:20 8.50795e-06
5 chany_top_out[8] right_grid_left_width_0_height_0_subtile_0__pin_I_3_ 0
*RES
1 *541:X right_grid_left_width_0_height_0_subtile_0__pin_I_3_ 18.6586 
*END

*D_NET *44 0.000782463
*CONN
*P right_grid_left_width_0_height_0_subtile_0__pin_I_7_ O
*I *542:X O *D sky130_fd_sc_hd__buf_2
*CAP
1 right_grid_left_width_0_height_0_subtile_0__pin_I_7_ 0.000339815
2 *542:X 0.000339815
3 right_grid_left_width_0_height_0_subtile_0__pin_I_7_ *519:A 0
4 right_grid_left_width_0_height_0_subtile_0__pin_I_3_ right_grid_left_width_0_height_0_subtile_0__pin_I_7_ 0
5 *500:A right_grid_left_width_0_height_0_subtile_0__pin_I_7_ 0.000102833
*RES
1 *542:X right_grid_left_width_0_height_0_subtile_0__pin_I_7_ 18.4985 
*END

*D_NET *47 0.000670028
*CONN
*I *356:A I *D sky130_fd_sc_hd__clkbuf_1
*I *355:X O *D sky130_fd_sc_hd__clkbuf_1
*CAP
1 *356:A 0.000228239
2 *355:X 0.000228239
3 *356:A *354:A 0
4 *356:A *421:CLK 3.16666e-05
5 *356:A *470:A 7.54868e-05
6 *356:A *474:A 8.47289e-06
7 *356:A *88:24 9.79244e-05
*RES
1 *355:X *356:A 31.2607 
*END

*D_NET *48 0.000165687
*CONN
*I *358:A I *D sky130_fd_sc_hd__clkbuf_1
*I *357:X O *D sky130_fd_sc_hd__clkbuf_1
*CAP
1 *358:A 3.18878e-05
2 *357:X 3.18878e-05
3 *358:A *357:A 5.10422e-05
4 *358:A *471:TE_B 2.00031e-05
5 *358:A *487:A 3.08664e-05
*RES
1 *357:X *358:A 19.8679 
*END

*D_NET *49 0.000487026
*CONN
*I *363:A I *D sky130_fd_sc_hd__clkbuf_1
*I *362:X O *D sky130_fd_sc_hd__clkbuf_1
*CAP
1 *363:A 0.000144464
2 *362:X 0.000144464
3 *363:A *362:A 0.00010096
4 *363:A *464:TE_B 1.32056e-05
5 *363:A *469:TE_B 3.41517e-06
6 *363:A *88:24 2.52929e-05
7 *363:A *109:42 5.52238e-05
*RES
1 *362:X *363:A 21.6357 
*END

*D_NET *50 0.00144431
*CONN
*I *365:A I *D sky130_fd_sc_hd__clkbuf_1
*I *364:X O *D sky130_fd_sc_hd__clkbuf_1
*CAP
1 *365:A 0.000402162
2 *364:X 0.000402162
3 *365:A *461:TE_B 0.000356534
4 *365:A *463:Z 5.33005e-05
5 *365:A *110:31 5.65955e-05
6 *365:A *110:38 0.000173559
*RES
1 *364:X *365:A 26.1536 
*END

*D_NET *51 0.000713734
*CONN
*I *368:A I *D sky130_fd_sc_hd__clkbuf_1
*I *367:X O *D sky130_fd_sc_hd__clkbuf_1
*CAP
1 *368:A 0.00031583
2 *367:X 0.00031583
3 *368:A *432:A 0
4 *368:A *433:A 0
5 *368:A *463:A 7.29646e-05
6 *368:A *151:22 9.11048e-06
*RES
1 *367:X *368:A 31.975 
*END

*D_NET *52 0.000561321
*CONN
*I *370:A I *D sky130_fd_sc_hd__clkbuf_1
*I *369:X O *D sky130_fd_sc_hd__clkbuf_1
*CAP
1 *370:A 0.000162706
2 *369:X 0.000162706
3 *370:A *369:A 3.69047e-06
4 *370:A *433:A 0.000150625
5 *370:A *150:18 8.15939e-05
*RES
1 *369:X *370:A 30.4929 
*END

*D_NET *53 0.00113009
*CONN
*I *374:A I *D sky130_fd_sc_hd__clkbuf_1
*I *373:X O *D sky130_fd_sc_hd__clkbuf_1
*CAP
1 *374:A 0.000221908
2 *373:X 0.000221908
3 *374:A *372:A 5.49544e-05
4 *374:A *403:A 0
5 *374:A *462:TE_B 0.00024768
6 *374:A *466:TE_B 0.000115817
7 *374:A *468:TE_B 4.78308e-05
8 *374:A *109:14 0.000139907
9 *486:A *374:A 8.00806e-05
*RES
1 *373:X *374:A 33.6179 
*END

*D_NET *54 0.000857495
*CONN
*I *376:A I *D sky130_fd_sc_hd__clkbuf_1
*I *375:X O *D sky130_fd_sc_hd__clkbuf_1
*CAP
1 *376:A 0.00025467
2 *375:X 0.00025467
3 *376:A *490:A 0
4 *376:A *110:38 3.67252e-05
5 *376:A *149:20 0.00031143
*RES
1 *375:X *376:A 32.6179 
*END

*D_NET *55 0.0010057
*CONN
*I *381:A I *D sky130_fd_sc_hd__clkbuf_1
*I *380:X O *D sky130_fd_sc_hd__clkbuf_1
*CAP
1 *381:A 0.00016132
2 *380:X 0.00016132
3 *381:A *380:A 0.000410535
4 *381:A *445:TE_B 5.52302e-05
5 *381:A *451:A 3.18676e-05
6 *381:A *451:TE_B 0.000185425
*RES
1 *380:X *381:A 24.1 
*END

*D_NET *56 0.00157964
*CONN
*I *384:A I *D sky130_fd_sc_hd__clkbuf_1
*I *383:X O *D sky130_fd_sc_hd__clkbuf_1
*CAP
1 *384:A 0.000258588
2 *383:X 0.000258588
3 *384:A *416:D 0.000125217
4 *384:A *449:A 0.00014183
5 *384:A *449:TE_B 4.75955e-05
6 *384:A *499:A 3.50166e-05
7 *384:A *104:35 4.98511e-05
8 *384:A *155:16 0.000662951
*RES
1 *383:X *384:A 27.2607 
*END

*D_NET *57 0.00320985
*CONN
*I *386:A I *D sky130_fd_sc_hd__buf_1
*I *385:X O *D sky130_fd_sc_hd__clkbuf_1
*CAP
1 *386:A 0
2 *385:X 0.000598817
3 *57:18 0.000598817
4 *57:18 *398:A 0.000149911