*SPEF "ieee 1481-1999"
*DESIGN "sb_1__1_"
*DATE "11:11:11 Fri 11 11, 1111"
*VENDOR "OpenRCX"
*PROGRAM "Parallel Extraction"
*VERSION "1.0"
*DESIGN_FLOW "NAME_SCOPE LOCAL" "PIN_CAP NONE"
*DIVIDER /
*DELIMITER :
*BUS_DELIMITER []
*T_UNIT 1 NS
*C_UNIT 1 PF
*R_UNIT 1 OHM
*L_UNIT 1 HENRY

*NAME_MAP
*1 bottom_left_grid_right_width_0_height_0_subtile_0__pin_O_3_
*2 bottom_right_grid_left_width_0_height_0_subtile_0__pin_O_1_
*3 ccff_head
*4 ccff_tail
*5 chanx_left_in[0]
*6 chanx_left_in[1]
*7 chanx_left_in[2]
*8 chanx_left_in[3]
*9 chanx_left_in[4]
*10 chanx_left_in[5]
*11 chanx_left_in[6]
*12 chanx_left_in[7]
*13 chanx_left_in[8]
*14 chanx_left_out[0]
*15 chanx_left_out[1]
*16 chanx_left_out[2]
*17 chanx_left_out[3]
*18 chanx_left_out[4]
*19 chanx_left_out[5]
*20 chanx_left_out[6]
*21 chanx_left_out[7]
*22 chanx_left_out[8]
*23 chanx_right_in[0]
*24 chanx_right_in[1]
*25 chanx_right_in[2]
*26 chanx_right_in[3]
*27 chanx_right_in[4]
*28 chanx_right_in[5]
*29 chanx_right_in[6]
*30 chanx_right_in[7]
*31 chanx_right_in[8]
*32 chanx_right_out[0]
*33 chanx_right_out[1]
*34 chanx_right_out[2]
*35 chanx_right_out[3]
*36 chanx_right_out[4]
*37 chanx_right_out[5]
*38 chanx_right_out[6]
*39 chanx_right_out[7]
*40 chanx_right_out[8]
*41 chany_bottom_in[0]
*42 chany_bottom_in[1]
*43 chany_bottom_in[2]
*44 chany_bottom_in[3]
*45 chany_bottom_in[4]
*46 chany_bottom_in[5]
*47 chany_bottom_in[6]
*48 chany_bottom_in[7]
*49 chany_bottom_in[8]
*50 chany_bottom_out[0]
*51 chany_bottom_out[1]
*52 chany_bottom_out[2]
*53 chany_bottom_out[3]
*54 chany_bottom_out[4]
*55 chany_bottom_out[5]
*56 chany_bottom_out[6]
*57 chany_bottom_out[7]
*58 chany_bottom_out[8]
*59 chany_top_in[0]
*60 chany_top_in[1]
*61 chany_top_in[2]
*62 chany_top_in[3]
*63 chany_top_in[4]
*64 chany_top_in[5]
*65 chany_top_in[6]
*66 chany_top_in[7]
*67 chany_top_in[8]
*68 chany_top_out[0]
*69 chany_top_out[1]
*70 chany_top_out[2]
*71 chany_top_out[3]
*72 chany_top_out[4]
*73 chany_top_out[5]
*74 chany_top_out[6]
*75 chany_top_out[7]
*76 chany_top_out[8]
*77 left_bottom_grid_top_width_0_height_0_subtile_0__pin_O_2_
*78 left_top_grid_bottom_width_0_height_0_subtile_0__pin_O_0_
*79 prog_clk
*80 right_bottom_grid_top_width_0_height_0_subtile_0__pin_O_2_
*81 right_top_grid_bottom_width_0_height_0_subtile_0__pin_O_0_
*82 top_left_grid_right_width_0_height_0_subtile_0__pin_O_3_
*83 top_right_grid_left_width_0_height_0_subtile_0__pin_O_1_
*86 _000_
*87 _001_
*88 _002_
*89 _003_
*90 _004_
*91 _005_
*92 _006_
*93 _007_
*94 _008_
*95 _009_
*96 _010_
*97 _011_
*98 _012_
*99 _013_
*100 _014_
*101 _015_
*102 _016_
*103 _017_
*104 _018_
*105 _019_
*106 _020_
*107 _021_
*108 _022_
*109 _023_
*110 _024_
*111 _025_
*112 _026_
*113 _027_
*114 _028_
*115 _029_
*116 _030_
*117 _031_
*118 _032_
*119 _033_
*120 _034_
*121 _035_
*122 _036_
*123 _037_
*124 _038_
*125 _039_
*126 _040_
*127 _041_
*128 _042_
*129 _043_
*130 _044_
*131 _045_
*132 _046_
*133 _047_
*134 _048_
*135 _049_
*136 _050_
*137 _051_
*138 _052_
*139 _053_
*140 _054_
*141 _055_
*142 _056_
*143 _057_
*144 _058_
*145 _059_
*146 _060_
*147 _061_
*148 _062_
*149 _063_
*150 _064_
*151 _065_
*152 _066_
*153 _067_
*154 _068_
*155 _069_
*156 _070_
*157 _071_
*158 _072_
*159 _073_
*160 _074_
*161 _075_
*162 _076_
*163 _077_
*164 _078_
*165 _079_
*166 _080_
*167 _081_
*168 _082_
*169 _083_
*170 _084_
*171 _085_
*172 _086_
*173 _087_
*174 _088_
*175 _089_
*176 _090_
*177 _091_
*178 _092_
*179 _093_
*180 _094_
*181 _095_
*182 _096_
*183 _097_
*184 _098_
*185 _099_
*186 _100_
*187 _101_
*188 _102_
*189 _103_
*190 _104_
*191 _105_
*192 _106_
*193 _107_
*194 _108_
*195 _109_
*196 _110_
*197 _111_
*198 _112_
*199 _113_
*200 _114_
*201 _115_
*202 _116_
*203 _117_
*204 _118_
*205 _119_
*206 _120_
*207 _121_
*208 _122_
*209 _123_
*210 _124_
*211 _125_
*212 _126_
*213 _127_
*214 _128_
*215 _129_
*216 _130_
*217 _131_
*218 _132_
*219 _133_
*220 _134_
*221 _135_
*222 _136_
*223 _137_
*224 _138_
*225 _139_
*226 _140_
*227 _141_
*228 _142_
*229 _143_
*230 _144_
*231 _145_
*232 _146_
*233 _147_
*234 _148_
*235 _149_
*236 _150_
*237 _151_
*238 _152_
*239 _153_
*240 _154_
*241 _155_
*242 _156_
*243 _157_
*244 _158_
*245 _159_
*246 _160_
*247 _161_
*248 _162_
*249 _163_
*250 _164_
*251 _165_
*252 _166_
*253 _167_
*254 _168_
*255 _169_
*256 _170_
*257 _171_
*258 _172_
*259 _173_
*260 _174_
*261 _175_
*262 _176_
*263 _177_
*264 _178_
*265 _179_
*266 _180_
*267 _181_
*268 _182_
*269 _183_
*270 _184_
*271 _185_
*272 _186_
*273 _187_
*274 _188_
*275 _189_
*276 _190_
*277 _191_
*278 _192_
*279 _193_
*280 _194_
*281 _195_
*282 _196_
*283 _197_
*284 _198_
*285 _199_
*286 _200_
*287 _201_
*288 _202_
*289 _203_
*290 _204_
*291 _205_
*292 _206_
*293 _207_
*294 _208_
*295 _209_
*296 _210_
*297 _211_
*298 _212_
*299 _213_
*300 _214_
*301 _215_
*302 _216_
*303 _217_
*304 _218_
*305 _219_
*306 _220_
*307 _221_
*308 _222_
*309 _223_
*310 _224_
*311 _225_
*312 _226_
*313 _227_
*314 _228_
*315 _229_
*316 _230_
*317 _231_
*318 _232_
*319 _233_
*320 _234_
*321 _235_
*322 _236_
*323 _237_
*324 _238_
*325 _239_
*326 _240_
*327 _241_
*328 _242_
*329 _243_
*330 _244_
*331 _245_
*332 _246_
*333 _247_
*334 _248_
*335 _249_
*336 _250_
*337 _251_
*338 _252_
*339 _253_
*340 _254_
*341 _255_
*342 _256_
*343 _257_
*344 _258_
*345 _259_
*346 _260_
*347 _261_
*348 _262_
*349 _263_
*350 _264_
*351 _265_
*352 _266_
*353 _267_
*354 _268_
*355 _269_
*356 _270_
*357 _271_
*358 _272_
*359 _273_
*360 _274_
*361 _275_
*362 _276_
*363 _277_
*364 _278_
*365 _279_
*366 _280_
*367 _281_
*368 _282_
*369 _283_
*370 _284_
*371 _285_
*372 _286_
*373 _287_
*374 _288_
*375 _289_
*376 _290_
*377 _291_
*378 _292_
*379 _293_
*380 _294_
*381 _295_
*382 _296_
*383 _297_
*384 _298_
*385 _299_
*386 _300_
*387 _301_
*388 _302_
*389 _303_
*390 _304_
*391 _305_
*392 _306_
*393 _307_
*394 _308_
*395 _309_
*396 _310_
*397 _311_
*398 clknet_0_prog_clk
*399 clknet_2_0__leaf_prog_clk
*400 clknet_2_1__leaf_prog_clk
*401 clknet_2_2__leaf_prog_clk
*402 clknet_2_3__leaf_prog_clk
*403 mem_bottom_track_1\.DFF_0_\.D
*404 mem_bottom_track_1\.DFF_0_\.Q
*405 mem_bottom_track_1\.DFF_1_\.Q
*406 mem_bottom_track_1\.DFF_2_\.Q
*407 mem_bottom_track_1\.DFF_3_\.Q
*408 mem_bottom_track_17\.DFF_0_\.D
*409 mem_bottom_track_17\.DFF_0_\.Q
*410 mem_bottom_track_17\.DFF_1_\.Q
*411 mem_bottom_track_17\.DFF_2_\.Q
*412 mem_bottom_track_17\.DFF_3_\.Q
*413 mem_bottom_track_9\.DFF_0_\.Q
*414 mem_bottom_track_9\.DFF_1_\.Q
*415 mem_bottom_track_9\.DFF_2_\.Q
*416 mem_left_track_1\.DFF_0_\.Q
*417 mem_left_track_1\.DFF_1_\.Q
*418 mem_left_track_1\.DFF_2_\.Q
*419 mem_left_track_1\.DFF_3_\.Q
*420 mem_left_track_17\.DFF_0_\.D
*421 mem_left_track_17\.DFF_0_\.Q
*422 mem_left_track_17\.DFF_1_\.Q
*423 mem_left_track_17\.DFF_2_\.Q
*424 mem_left_track_9\.DFF_0_\.Q
*425 mem_left_track_9\.DFF_1_\.Q
*426 mem_left_track_9\.DFF_2_\.Q
*427 mem_right_track_0\.DFF_0_\.D
*428 mem_right_track_0\.DFF_0_\.Q
*429 mem_right_track_0\.DFF_1_\.Q
*430 mem_right_track_0\.DFF_2_\.Q
*431 mem_right_track_0\.DFF_3_\.Q
*432 mem_right_track_16\.DFF_0_\.D
*433 mem_right_track_16\.DFF_0_\.Q
*434 mem_right_track_16\.DFF_1_\.Q
*435 mem_right_track_16\.DFF_2_\.Q
*436 mem_right_track_8\.DFF_0_\.Q
*437 mem_right_track_8\.DFF_1_\.Q
*438 mem_right_track_8\.DFF_2_\.Q
*439 mem_top_track_0\.DFF_0_\.Q
*440 mem_top_track_0\.DFF_1_\.Q
*441 mem_top_track_0\.DFF_2_\.Q
*442 mem_top_track_0\.DFF_3_\.Q
*443 mem_top_track_16\.DFF_0_\.D
*444 mem_top_track_16\.DFF_0_\.Q
*445 mem_top_track_16\.DFF_1_\.Q
*446 mem_top_track_16\.DFF_2_\.Q
*447 mem_top_track_8\.DFF_0_\.Q
*448 mem_top_track_8\.DFF_1_\.Q
*449 mem_top_track_8\.DFF_2_\.Q
*450 mux_bottom_track_1\.INVTX1_0_\.out
*451 mux_bottom_track_1\.INVTX1_1_\.out
*452 mux_bottom_track_1\.INVTX1_2_\.out
*453 mux_bottom_track_1\.INVTX1_3_\.out
*454 mux_bottom_track_1\.INVTX1_4_\.out
*455 mux_bottom_track_1\.INVTX1_5_\.out
*456 mux_bottom_track_1\.INVTX1_6_\.out
*457 mux_bottom_track_1\.INVTX1_7_\.out
*458 mux_bottom_track_1\.INVTX1_8_\.out
*459 mux_bottom_track_1\.mux_l1_in_0_\.TGATE_0_\.out
*460 mux_bottom_track_1\.mux_l1_in_1_\.TGATE_0_\.out
*461 mux_bottom_track_1\.mux_l2_in_0_\.TGATE_0_\.out
*462 mux_bottom_track_1\.mux_l2_in_1_\.TGATE_0_\.out
*463 mux_bottom_track_1\.mux_l2_in_2_\.TGATE_0_\.out
*464 mux_bottom_track_1\.mux_l2_in_3_\.TGATE_0_\.out
*465 mux_bottom_track_1\.mux_l3_in_0_\.TGATE_0_\.out
*466 mux_bottom_track_1\.mux_l3_in_1_\.TGATE_0_\.out
*467 mux_bottom_track_1\.mux_l4_in_0_\.TGATE_0_\.out
*468 mux_bottom_track_17\.INVTX1_0_\.out
*469 mux_bottom_track_17\.INVTX1_1_\.out
*470 mux_bottom_track_17\.INVTX1_2_\.out
*471 mux_bottom_track_17\.INVTX1_3_\.out
*472 mux_bottom_track_17\.INVTX1_4_\.out
*473 mux_bottom_track_17\.INVTX1_5_\.out
*474 mux_bottom_track_17\.INVTX1_6_\.out
*475 mux_bottom_track_17\.INVTX1_7_\.out
*476 mux_bottom_track_17\.mux_l1_in_0_\.TGATE_0_\.out
*477 mux_bottom_track_17\.mux_l2_in_0_\.TGATE_0_\.out
*478 mux_bottom_track_17\.mux_l2_in_1_\.TGATE_0_\.out
*479 mux_bottom_track_17\.mux_l2_in_2_\.TGATE_0_\.out
*480 mux_bottom_track_17\.mux_l2_in_3_\.TGATE_0_\.out
*481 mux_bottom_track_17\.mux_l3_in_0_\.TGATE_0_\.out
*482 mux_bottom_track_17\.mux_l3_in_1_\.TGATE_0_\.out
*483 mux_bottom_track_17\.mux_l4_in_0_\.TGATE_0_\.out
*484 mux_bottom_track_9\.INVTX1_0_\.out
*485 mux_bottom_track_9\.INVTX1_1_\.out
*486 mux_bottom_track_9\.INVTX1_2_\.out
*487 mux_bottom_track_9\.INVTX1_3_\.out
*488 mux_bottom_track_9\.INVTX1_4_\.out
*489 mux_bottom_track_9\.INVTX1_5_\.out
*490 mux_bottom_track_9\.INVTX1_6_\.out
*491 mux_bottom_track_9\.INVTX1_7_\.out
*492 mux_bottom_track_9\.INVTX1_8_\.out
*493 mux_bottom_track_9\.mux_l1_in_0_\.TGATE_0_\.out
*494 mux_bottom_track_9\.mux_l1_in_1_\.TGATE_0_\.out
*495 mux_bottom_track_9\.mux_l2_in_0_\.TGATE_0_\.out
*496 mux_bottom_track_9\.mux_l2_in_1_\.TGATE_0_\.out
*497 mux_bottom_track_9\.mux_l2_in_2_\.TGATE_0_\.out
*498 mux_bottom_track_9\.mux_l2_in_3_\.TGATE_0_\.out
*499 mux_bottom_track_9\.mux_l3_in_0_\.TGATE_0_\.out
*500 mux_bottom_track_9\.mux_l3_in_1_\.TGATE_0_\.out
*501 mux_bottom_track_9\.mux_l4_in_0_\.TGATE_0_\.out
*502 mux_left_track_1\.INVTX1_1_\.out
*503 mux_left_track_1\.INVTX1_5_\.out
*504 mux_left_track_1\.INVTX1_6_\.out
*505 mux_left_track_1\.INVTX1_7_\.out
*506 mux_left_track_1\.INVTX1_8_\.out
*507 mux_left_track_1\.mux_l1_in_0_\.TGATE_0_\.out
*508 mux_left_track_1\.mux_l1_in_1_\.TGATE_0_\.out
*509 mux_left_track_1\.mux_l2_in_0_\.TGATE_0_\.out
*510 mux_left_track_1\.mux_l2_in_1_\.TGATE_0_\.out
*511 mux_left_track_1\.mux_l2_in_2_\.TGATE_0_\.out
*512 mux_left_track_1\.mux_l2_in_3_\.TGATE_0_\.out
*513 mux_left_track_1\.mux_l3_in_0_\.TGATE_0_\.out
*514 mux_left_track_1\.mux_l3_in_1_\.TGATE_0_\.out
*515 mux_left_track_1\.mux_l4_in_0_\.TGATE_0_\.out
*516 mux_left_track_17\.INVTX1_2_\.out
*517 mux_left_track_17\.INVTX1_5_\.out
*518 mux_left_track_17\.INVTX1_6_\.out
*519 mux_left_track_17\.INVTX1_7_\.out
*520 mux_left_track_17\.mux_l1_in_0_\.TGATE_0_\.out
*521 mux_left_track_17\.mux_l2_in_0_\.TGATE_0_\.out
*522 mux_left_track_17\.mux_l2_in_1_\.TGATE_0_\.out
*523 mux_left_track_17\.mux_l2_in_2_\.TGATE_0_\.out
*524 mux_left_track_17\.mux_l2_in_3_\.TGATE_0_\.out
*525 mux_left_track_17\.mux_l3_in_0_\.TGATE_0_\.out
*526 mux_left_track_17\.mux_l3_in_1_\.TGATE_0_\.out
*527 mux_left_track_17\.mux_l4_in_0_\.TGATE_0_\.out
*528 mux_left_track_9\.INVTX1_2_\.out
*529 mux_left_track_9\.INVTX1_5_\.out
*530 mux_left_track_9\.INVTX1_6_\.out
*531 mux_left_track_9\.INVTX1_7_\.out
*532 mux_left_track_9\.INVTX1_8_\.out
*533 mux_left_track_9\.mux_l1_in_0_\.TGATE_0_\.out
*534 mux_left_track_9\.mux_l1_in_1_\.TGATE_0_\.out
*535 mux_left_track_9\.mux_l2_in_0_\.TGATE_0_\.out
*536 mux_left_track_9\.mux_l2_in_1_\.TGATE_0_\.out
*537 mux_left_track_9\.mux_l2_in_2_\.TGATE_0_\.out
*538 mux_left_track_9\.mux_l2_in_3_\.TGATE_0_\.out
*539 mux_left_track_9\.mux_l3_in_0_\.TGATE_0_\.out
*540 mux_left_track_9\.mux_l3_in_1_\.TGATE_0_\.out
*541 mux_left_track_9\.mux_l4_in_0_\.TGATE_0_\.out
*542 mux_right_track_0\.INVTX1_3_\.out
*543 mux_right_track_0\.mux_l1_in_0_\.TGATE_0_\.out
*544 mux_right_track_0\.mux_l1_in_1_\.TGATE_0_\.out
*545 mux_right_track_0\.mux_l2_in_0_\.TGATE_0_\.out
*546 mux_right_track_0\.mux_l2_in_1_\.TGATE_0_\.out
*547 mux_right_track_0\.mux_l2_in_2_\.TGATE_0_\.out
*548 mux_right_track_0\.mux_l2_in_3_\.TGATE_0_\.out
*549 mux_right_track_0\.mux_l3_in_0_\.TGATE_0_\.out
*550 mux_right_track_0\.mux_l3_in_1_\.TGATE_0_\.out
*551 mux_right_track_0\.mux_l4_in_0_\.TGATE_0_\.out
*552 mux_right_track_16\.mux_l1_in_0_\.TGATE_0_\.out
*553 mux_right_track_16\.mux_l2_in_0_\.TGATE_0_\.out
*554 mux_right_track_16\.mux_l2_in_1_\.TGATE_0_\.out
*555 mux_right_track_16\.mux_l2_in_2_\.TGATE_0_\.out
*556 mux_right_track_16\.mux_l2_in_3_\.TGATE_0_\.out
*557 mux_right_track_16\.mux_l3_in_0_\.TGATE_0_\.out
*558 mux_right_track_16\.mux_l3_in_1_\.TGATE_0_\.out
*559 mux_right_track_16\.mux_l4_in_0_\.TGATE_0_\.out
*560 mux_right_track_8\.INVTX1_3_\.out
*561 mux_right_track_8\.mux_l1_in_0_\.TGATE_0_\.out
*562 mux_right_track_8\.mux_l1_in_1_\.TGATE_0_\.out
*563 mux_right_track_8\.mux_l2_in_0_\.TGATE_0_\.out
*564 mux_right_track_8\.mux_l2_in_1_\.TGATE_0_\.out
*565 mux_right_track_8\.mux_l2_in_2_\.TGATE_0_\.out
*566 mux_right_track_8\.mux_l2_in_3_\.TGATE_0_\.out
*567 mux_right_track_8\.mux_l3_in_0_\.TGATE_0_\.out
*568 mux_right_track_8\.mux_l3_in_1_\.TGATE_0_\.out
*569 mux_right_track_8\.mux_l4_in_0_\.TGATE_0_\.out
*570 mux_top_track_0\.INVTX1_0_\.out
*571 mux_top_track_0\.mux_l1_in_0_\.TGATE_0_\.out
*572 mux_top_track_0\.mux_l1_in_1_\.TGATE_0_\.out
*573 mux_top_track_0\.mux_l2_in_0_\.TGATE_0_\.out
*574 mux_top_track_0\.mux_l2_in_1_\.TGATE_0_\.out
*575 mux_top_track_0\.mux_l2_in_2_\.TGATE_0_\.out
*576 mux_top_track_0\.mux_l2_in_3_\.TGATE_0_\.out
*577 mux_top_track_0\.mux_l3_in_0_\.TGATE_0_\.out
*578 mux_top_track_0\.mux_l3_in_1_\.TGATE_0_\.out
*579 mux_top_track_0\.mux_l4_in_0_\.TGATE_0_\.out
*580 mux_top_track_16\.mux_l1_in_0_\.TGATE_0_\.out
*581 mux_top_track_16\.mux_l2_in_0_\.TGATE_0_\.out
*582 mux_top_track_16\.mux_l2_in_1_\.TGATE_0_\.out
*583 mux_top_track_16\.mux_l2_in_2_\.TGATE_0_\.out
*584 mux_top_track_16\.mux_l2_in_3_\.TGATE_0_\.out
*585 mux_top_track_16\.mux_l3_in_0_\.TGATE_0_\.out
*586 mux_top_track_16\.mux_l3_in_1_\.TGATE_0_\.out
*587 mux_top_track_16\.mux_l4_in_0_\.TGATE_0_\.out
*588 mux_top_track_8\.INVTX1_0_\.out
*589 mux_top_track_8\.mux_l1_in_0_\.TGATE_0_\.out
*590 mux_top_track_8\.mux_l1_in_1_\.TGATE_0_\.out
*591 mux_top_track_8\.mux_l2_in_0_\.TGATE_0_\.out
*592 mux_top_track_8\.mux_l2_in_1_\.TGATE_0_\.out
*593 mux_top_track_8\.mux_l2_in_2_\.TGATE_0_\.out
*594 mux_top_track_8\.mux_l2_in_3_\.TGATE_0_\.out
*595 mux_top_track_8\.mux_l3_in_0_\.TGATE_0_\.out
*596 mux_top_track_8\.mux_l3_in_1_\.TGATE_0_\.out
*597 mux_top_track_8\.mux_l4_in_0_\.TGATE_0_\.out
*598 net1
*599 net10
*600 net100
*601 net101
*602 net102
*603 net103
*604 net104
*605 net105
*606 net106
*607 net107
*608 net108
*609 net109
*610 net11
*611 net110
*612 net111
*613 net112
*614 net113
*615 net114
*616 net115
*617 net116
*618 net117
*619 net118
*620 net119
*621 net12
*622 net120
*623 net121
*624 net122
*625 net123
*626 net124
*627 net125
*628 net126
*629 net127
*630 net128
*631 net129
*632 net13
*633 net130
*634 net131
*635 net132
*636 net133
*637 net134
*638 net135
*639 net136
*640 net137
*641 net138
*642 net139
*643 net14
*644 net140
*645 net141
*646 net15
*647 net16
*648 net17
*649 net18
*650 net19
*651 net2
*652 net20
*653 net21
*654 net22
*655 net23
*656 net24
*657 net25
*658 net26
*659 net27
*660 net28
*661 net29
*662 net3
*663 net30
*664 net31
*665 net32
*666 net33
*667 net34
*668 net35
*669 net36
*670 net37
*671 net38
*672 net39
*673 net4
*674 net40
*675 net41
*676 net42
*677 net43
*678 net44
*679 net45
*680 net46
*681 net47
*682 net48
*683 net49
*684 net5
*685 net50
*686 net51
*687 net52
*688 net53
*689 net54
*690 net55
*691 net56
*692 net57
*693 net58
*694 net59
*695 net6
*696 net60
*697 net61
*698 net62
*699 net63
*700 net64
*701 net65
*702 net66
*703 net67
*704 net68
*705 net69
*706 net7
*707 net70
*708 net71
*709 net72
*710 net73
*711 net74
*712 net75
*713 net76
*714 net77
*715 net78
*716 net79
*717 net8
*718 net80
*719 net81
*720 net82
*721 net83
*722 net84
*723 net85
*724 net86
*725 net87
*726 net88
*727 net89
*728 net9
*729 net90
*730 net91
*731 net92
*732 net93
*733 net94
*734 net95
*735 net96
*736 net97
*737 net98
*738 net99
*739 FILLER_0_0_108
*740 FILLER_0_0_144
*741 FILLER_0_0_15
*742 FILLER_0_0_26
*743 FILLER_0_0_29
*744 FILLER_0_0_47
*745 FILLER_0_10_138
*746 FILLER_0_10_144
*747 FILLER_0_10_41
*748 FILLER_0_10_82
*749 FILLER_0_10_96
*750 FILLER_0_11_111
*751 FILLER_0_11_13
*752 FILLER_0_11_130
*753 FILLER_0_11_145
*754 FILLER_0_11_63
*755 FILLER_0_11_82
*756 FILLER_0_11_88
*757 FILLER_0_11_95
*758 FILLER_0_12_103
*759 FILLER_0_12_139
*760 FILLER_0_12_144
*761 FILLER_0_12_3
*762 FILLER_0_12_32
*763 FILLER_0_12_82
*764 FILLER_0_12_96
*765 FILLER_0_13_107
*766 FILLER_0_13_111
*767 FILLER_0_13_113
*768 FILLER_0_13_118
*769 FILLER_0_13_145
*770 FILLER_0_13_24
*771 FILLER_0_13_34
*772 FILLER_0_13_55
*773 FILLER_0_13_60
*774 FILLER_0_13_67
*775 FILLER_0_13_77
*776 FILLER_0_13_90
*777 FILLER_0_13_98
*778 FILLER_0_14_107
*779 FILLER_0_14_112
*780 FILLER_0_14_116
*781 FILLER_0_14_139
*782 FILLER_0_14_144
*783 FILLER_0_14_40
*784 FILLER_0_14_83
*785 FILLER_0_14_85
*786 FILLER_0_15_104
*787 FILLER_0_15_108
*788 FILLER_0_15_132
*789 FILLER_0_15_24
*790 FILLER_0_15_3
*791 FILLER_0_15_37
*792 FILLER_0_15_50
*793 FILLER_0_15_57
*794 FILLER_0_15_8
*795 FILLER_0_15_97
*796 FILLER_0_16_10
*797 FILLER_0_16_123
*798 FILLER_0_16_141
*799 FILLER_0_16_19
*800 FILLER_0_16_29
*801 FILLER_0_16_3
*802 FILLER_0_16_46
*803 FILLER_0_16_66
*804 FILLER_0_17_111
*805 FILLER_0_17_119
*806 FILLER_0_17_127
*807 FILLER_0_17_136
*808 FILLER_0_17_145
*809 FILLER_0_17_3
*810 FILLER_0_17_35
*811 FILLER_0_17_55
*812 FILLER_0_17_60
*813 FILLER_0_18_126
*814 FILLER_0_18_138
*815 FILLER_0_18_144
*816 FILLER_0_18_18
*817 FILLER_0_18_52
*818 FILLER_0_18_56
*819 FILLER_0_18_6
*820 FILLER_0_18_94
*821 FILLER_0_18_98
*822 FILLER_0_19_109
*823 FILLER_0_19_119
*824 FILLER_0_19_123
*825 FILLER_0_19_127
*826 FILLER_0_19_139
*827 FILLER_0_19_14
*828 FILLER_0_19_3
*829 FILLER_0_19_42
*830 FILLER_0_19_66
*831 FILLER_0_19_96
*832 FILLER_0_1_111
*833 FILLER_0_1_13
*834 FILLER_0_1_52
*835 FILLER_0_1_65
*836 FILLER_0_1_88
*837 FILLER_0_20_136
*838 FILLER_0_20_144
*839 FILLER_0_20_18
*840 FILLER_0_20_3
*841 FILLER_0_20_40
*842 FILLER_0_20_8
*843 FILLER_0_21_116
*844 FILLER_0_21_134
*845 FILLER_0_21_16
*846 FILLER_0_21_3
*847 FILLER_0_21_35
*848 FILLER_0_21_68
*849 FILLER_0_22_111
*850 FILLER_0_22_121
*851 FILLER_0_22_144
*852 FILLER_0_22_20
*853 FILLER_0_22_72
*854 FILLER_0_22_77
*855 FILLER_0_22_82
*856 FILLER_0_22_85
*857 FILLER_0_22_9
*858 FILLER_0_23_101
*859 FILLER_0_23_140
*860 FILLER_0_23_3
*861 FILLER_0_23_35
*862 FILLER_0_23_40
*863 FILLER_0_23_52
*864 FILLER_0_23_57
*865 FILLER_0_23_68
*866 FILLER_0_23_79
*867 FILLER_0_23_97
*868 FILLER_0_24_113
*869 FILLER_0_24_119
*870 FILLER_0_24_144
*871 FILLER_0_24_43
*872 FILLER_0_24_47
*873 FILLER_0_24_65
*874 FILLER_0_24_88
*875 FILLER_0_24_97
*876 FILLER_0_25_107
*877 FILLER_0_25_140
*878 FILLER_0_25_17
*879 FILLER_0_25_57
*880 FILLER_0_25_74
*881 FILLER_0_25_84
*882 FILLER_0_26_112
*883 FILLER_0_26_139
*884 FILLER_0_26_144
*885 FILLER_0_26_27
*886 FILLER_0_26_29
*887 FILLER_0_26_47
*888 FILLER_0_26_65
*889 FILLER_0_26_70
*890 FILLER_0_26_80
*891 FILLER_0_26_93
*892 FILLER_0_27_116
*893 FILLER_0_27_141
*894 FILLER_0_27_15
*895 FILLER_0_27_49
*896 FILLER_0_27_57
*897 FILLER_0_27_73
*898 FILLER_0_27_88
*899 FILLER_0_28_115
*900 FILLER_0_28_139
*901 FILLER_0_28_144
*902 FILLER_0_28_27
*903 FILLER_0_28_29
*904 FILLER_0_28_33
*905 FILLER_0_28_42
*906 FILLER_0_28_61
*907 FILLER_0_28_82
*908 FILLER_0_28_9
*909 FILLER_0_29_116
*910 FILLER_0_29_124
*911 FILLER_0_29_44
*912 FILLER_0_29_80
*913 FILLER_0_29_85
*914 FILLER_0_29_90
*915 FILLER_0_29_95
*916 FILLER_0_2_103
*917 FILLER_0_2_141
*918 FILLER_0_2_35
*919 FILLER_0_2_85
*920 FILLER_0_30_126
*921 FILLER_0_30_133
*922 FILLER_0_30_144
*923 FILLER_0_30_16
*924 FILLER_0_30_26
*925 FILLER_0_30_29
*926 FILLER_0_30_6
*927 FILLER_0_30_85
*928 FILLER_0_31_106
*929 FILLER_0_31_110
*930 FILLER_0_31_12
*931 FILLER_0_31_124
*932 FILLER_0_31_144
*933 FILLER_0_31_36
*934 FILLER_0_31_65
*935 FILLER_0_31_86
*936 FILLER_0_31_94
*937 FILLER_0_32_121
*938 FILLER_0_32_144
*939 FILLER_0_32_23
*940 FILLER_0_32_29
*941 FILLER_0_32_3
*942 FILLER_0_32_51
*943 FILLER_0_32_83
*944 FILLER_0_32_93
*945 FILLER_0_33_82
*946 FILLER_0_33_9
*947 FILLER_0_34_129
*948 FILLER_0_34_144
*949 FILLER_0_34_16
*950 FILLER_0_34_29
*951 FILLER_0_34_9
*952 FILLER_0_35_101
*953 FILLER_0_35_122
*954 FILLER_0_35_139
*955 FILLER_0_35_144
*956 FILLER_0_35_3
*957 FILLER_0_35_60
*958 FILLER_0_35_77
*959 FILLER_0_35_85
*960 FILLER_0_35_93
*961 FILLER_0_3_110
*962 FILLER_0_3_13
*963 FILLER_0_3_145
*964 FILLER_0_3_34
*965 FILLER_0_3_55
*966 FILLER_0_3_57
*967 FILLER_0_3_64
*968 FILLER_0_4_10
*969 FILLER_0_4_104
*970 FILLER_0_4_144
*971 FILLER_0_4_27
*972 FILLER_0_4_3
*973 FILLER_0_4_37
*974 FILLER_0_4_68
*975 FILLER_0_4_72
*976 FILLER_0_4_80
*977 FILLER_0_4_85
*978 FILLER_0_5_111
*979 FILLER_0_5_13
*980 FILLER_0_5_141
*981 FILLER_0_5_22
*982 FILLER_0_5_50
*983 FILLER_0_5_54
*984 FILLER_0_5_60
*985 FILLER_0_5_77
*986 FILLER_0_6_102
*987 FILLER_0_6_115
*988 FILLER_0_6_128
*989 FILLER_0_6_138
*990 FILLER_0_6_14
*991 FILLER_0_6_144
*992 FILLER_0_6_24
*993 FILLER_0_6_80
*994 FILLER_0_6_85
*995 FILLER_0_7_121
*996 FILLER_0_7_26
*997 FILLER_0_7_3
*998 FILLER_0_7_65
*999 FILLER_0_7_83
*1000 FILLER_0_8_110
*1001 FILLER_0_8_13
*1002 FILLER_0_8_139
*1003 FILLER_0_8_144
*1004 FILLER_0_8_22
*1005 FILLER_0_8_27
*1006 FILLER_0_8_37
*1007 FILLER_0_8_54
*1008 FILLER_0_8_63
*1009 FILLER_0_8_85
*1010 FILLER_0_9_111
*1011 FILLER_0_9_144
*1012 FILLER_0_9_44
*1013 FILLER_0_9_60
*1014 FILLER_0_9_68
*1015 FILLER_0_9_72
*1016 FILLER_0_9_93
*1017 PHY_0
*1018 PHY_1
*1019 PHY_10
*1020 PHY_11
*1021 PHY_12
*1022 PHY_13
*1023 PHY_14
*1024 PHY_15
*1025 PHY_16
*1026 PHY_17
*1027 PHY_18
*1028 PHY_19
*1029 PHY_2
*1030 PHY_20
*1031 PHY_21
*1032 PHY_22
*1033 PHY_23
*1034 PHY_24
*1035 PHY_25
*1036 PHY_26
*1037 PHY_27
*1038 PHY_28
*1039 PHY_29
*1040 PHY_3
*1041 PHY_30
*1042 PHY_31
*1043 PHY_32
*1044 PHY_33
*1045 PHY_34
*1046 PHY_35
*1047 PHY_36
*1048 PHY_37
*1049 PHY_38
*1050 PHY_39
*1051 PHY_4
*1052 PHY_40
*1053 PHY_41
*1054 PHY_42
*1055 PHY_43
*1056 PHY_44
*1057 PHY_45
*1058 PHY_46
*1059 PHY_47
*1060 PHY_48
*1061 PHY_49
*1062 PHY_5
*1063 PHY_50
*1064 PHY_51
*1065 PHY_52
*1066 PHY_53
*1067 PHY_54
*1068 PHY_55
*1069 PHY_56
*1070 PHY_57
*1071 PHY_58
*1072 PHY_59
*1073 PHY_6
*1074 PHY_60
*1075 PHY_61
*1076 PHY_62
*1077 PHY_63
*1078 PHY_64
*1079 PHY_65
*1080 PHY_66
*1081 PHY_67
*1082 PHY_68
*1083 PHY_69
*1084 PHY_7
*1085 PHY_70
*1086 PHY_71
*1087 PHY_8
*1088 PHY_9
*1089 TAP_100
*1090 TAP_101
*1091 TAP_102
*1092 TAP_103
*1093 TAP_104
*1094 TAP_105
*1095 TAP_106
*1096 TAP_107
*1097 TAP_108
*1098 TAP_109
*1099 TAP_110
*1100 TAP_111
*1101 TAP_112
*1102 TAP_113
*1103 TAP_114
*1104 TAP_115
*1105 TAP_116
*1106 TAP_117
*1107 TAP_118
*1108 TAP_119
*1109 TAP_120
*1110 TAP_121
*1111 TAP_122
*1112 TAP_123
*1113 TAP_124
*1114 TAP_125
*1115 TAP_126
*1116 TAP_127
*1117 TAP_128
*1118 TAP_129
*1119 TAP_130
*1120 TAP_131
*1121 TAP_132
*1122 TAP_133
*1123 TAP_134
*1124 TAP_135
*1125 TAP_136
*1126 TAP_137
*1127 TAP_138
*1128 TAP_139
*1129 TAP_140
*1130 TAP_141
*1131 TAP_142
*1132 TAP_143
*1133 TAP_144
*1134 TAP_145
*1135 TAP_146
*1136 TAP_147
*1137 TAP_148
*1138 TAP_149
*1139 TAP_150
*1140 TAP_151
*1141 TAP_152
*1142 TAP_153
*1143 TAP_154
*1144 TAP_155
*1145 TAP_156
*1146 TAP_157
*1147 TAP_158
*1148 TAP_159
*1149 TAP_160
*1150 TAP_161
*1151 TAP_162
*1152 TAP_163
*1153 TAP_164
*1154 TAP_165
*1155 TAP_166
*1156 TAP_72
*1157 TAP_73
*1158 TAP_74
*1159 TAP_75
*1160 TAP_76
*1161 TAP_77
*1162 TAP_78
*1163 TAP_79
*1164 TAP_80
*1165 TAP_81
*1166 TAP_82
*1167 TAP_83
*1168 TAP_84
*1169 TAP_85
*1170 TAP_86
*1171 TAP_87
*1172 TAP_88
*1173 TAP_89
*1174 TAP_90
*1175 TAP_91
*1176 TAP_92
*1177 TAP_93
*1178 TAP_94
*1179 TAP_95
*1180 TAP_96
*1181 TAP_97
*1182 TAP_98
*1183 TAP_99
*1184 _324_
*1185 _325_
*1186 _326_
*1187 _327_
*1188 _328_
*1189 _329_
*1190 _330_
*1191 _331_
*1192 _332_
*1193 _333_
*1194 _334_
*1195 _335_
*1196 _336_
*1197 _337_
*1198 _338_
*1199 _339_
*1200 _340_
*1201 _341_
*1202 _342_
*1203 _343_
*1204 _344_
*1205 _345_
*1206 _346_
*1207 _347_
*1208 _348_
*1209 _349_
*1210 _350_
*1211 _351_
*1212 _352_
*1213 _353_
*1214 _354_
*1215 _355_
*1216 _356_
*1217 _357_
*1218 _358_
*1219 _359_
*1220 _360_
*1221 _361_
*1222 _362_
*1223 _363_
*1224 _364_
*1225 _365_
*1226 _366_
*1227 _367_
*1228 _368_
*1229 _369_
*1230 _370_
*1231 _371_
*1232 _372_
*1233 _373_
*1234 _374_
*1235 _375_
*1236 _376_
*1237 _377_
*1238 _378_
*1239 _379_
*1240 _380_
*1241 _381_
*1242 _382_
*1243 _383_
*1244 _384_
*1245 _385_
*1246 _386_
*1247 _387_
*1248 _388_
*1249 _389_
*1250 _390_
*1251 _391_
*1252 _392_
*1253 _393_
*1254 _394_
*1255 _395_
*1256 _396_
*1257 _397_
*1258 _398_
*1259 _399_
*1260 _400_
*1261 _401_
*1262 _402_
*1263 _403_
*1264 _404_
*1265 _405_
*1266 _406_
*1267 _407_
*1268 _408_
*1269 _409_
*1270 _410_
*1271 _411_
*1272 _412_
*1273 _413_
*1274 _414_
*1275 _415_
*1276 _416_
*1277 _417_
*1278 _418_
*1279 _419_
*1280 _420_
*1281 _421_
*1282 _422_
*1283 _423_
*1284 _424_
*1285 _425_
*1286 _426_
*1287 _427_
*1288 _428_
*1289 _429_
*1290 _430_
*1291 _431_
*1292 _432_
*1293 _433_
*1294 _434_
*1295 _435_
*1296 _436_
*1297 _437_
*1298 _438_
*1299 _439_
*1300 _440_
*1301 _441_
*1302 _442_
*1303 _443_
*1304 _444_
*1305 _445_
*1306 _446_
*1307 _447_
*1308 _448_
*1309 _449_
*1310 _450_
*1311 _451_
*1312 _452_
*1313 _453_
*1314 _454_
*1315 _455_
*1316 _456_
*1317 _457_
*1318 _458_
*1319 _459_
*1320 _460_
*1321 _461_
*1322 _462_
*1323 _463_
*1324 _464_
*1325 _465_
*1326 _466_
*1327 _467_
*1328 _468_
*1329 _469_
*1330 _470_
*1331 _471_
*1332 _472_
*1333 _473_
*1334 _474_
*1335 _475_
*1336 _476_
*1337 _477_
*1338 _478_
*1339 _479_
*1340 _480_
*1341 _481_
*1342 _482_
*1343 _483_
*1344 _484_
*1345 _485_
*1346 _486_
*1347 _487_
*1348 _488_
*1349 _489_
*1350 _490_
*1351 _491_
*1352 _492_
*1353 _493_
*1354 _494_
*1355 _495_
*1356 _496_
*1357 _497_
*1358 _498_
*1359 _499_
*1360 _500_
*1361 _501_
*1362 _502_
*1363 _503_
*1364 _504_
*1365 _505_
*1366 _506_
*1367 _507_
*1368 _508_
*1369 _509_
*1370 _510_
*1371 _511_
*1372 _512_
*1373 _513_
*1374 _514_
*1375 _515_
*1376 _516_
*1377 _517_
*1378 _518_
*1379 _519_
*1380 _520_
*1381 _521_
*1382 _522_
*1383 _523_
*1384 _524_
*1385 _525_
*1386 _526_
*1387 _527_
*1388 _528_
*1389 _529_
*1390 _530_
*1391 _531_
*1392 _532_
*1393 _533_
*1394 _534_
*1395 _535_
*1396 _536_
*1397 _537_
*1398 _538_
*1399 _539_
*1400 _540_
*1401 _541_
*1402 _542_
*1403 _543_
*1404 _544_
*1405 _545_
*1406 _546_
*1407 _547_
*1408 _548_
*1409 _549_
*1410 _550_
*1411 _551_
*1412 _552_
*1413 _553_
*1414 _554_
*1415 _555_
*1416 _556_
*1417 _557_
*1418 _558_
*1419 _559_
*1420 _560_
*1421 _561_
*1422 _562_
*1423 _563_
*1424 _564_
*1425 _565_
*1426 _566_
*1427 _567_
*1428 _568_
*1429 _569_
*1430 _570_
*1431 _571_
*1432 _572_
*1433 _573_
*1434 _574_
*1435 _575_
*1436 _576_
*1437 _577_
*1438 _578_
*1439 _579_
*1440 _580_
*1441 _581_
*1442 _582_
*1443 _583_
*1444 _584_
*1445 _585_
*1446 _586_
*1447 _587_
*1448 _588_
*1449 _589_
*1450 _590_
*1451 _591_
*1452 _592_
*1453 _593_
*1454 _594_
*1455 _595_
*1456 _596_
*1457 _597_
*1458 _598_
*1459 _599_
*1460 _600_
*1461 _601_
*1462 _602_
*1463 _603_
*1464 _604_
*1465 _605_
*1466 _606_
*1467 _607_
*1468 _608_
*1469 _609_
*1470 _610_
*1471 _611_
*1472 _612_
*1473 _613_
*1474 _614_
*1475 _615_
*1476 _616_
*1477 _617_
*1478 _618_
*1479 _619_
*1480 _620_
*1481 _621_
*1482 _622_
*1483 _623_
*1484 _624_
*1485 _625_
*1486 _626_
*1487 _627_
*1488 _628_
*1489 _629_
*1490 _630_
*1491 _631_
*1492 _632_
*1493 _633_
*1494 _634_
*1495 _635_
*1496 _636_
*1497 _637_
*1498 _638_
*1499 _639_
*1500 _640_
*1501 _641_
*1502 _642_
*1503 _643_
*1504 _644_
*1505 _645_
*1506 _646_
*1507 _647_
*1508 _648_
*1509 _649_
*1510 _650_
*1511 _651_
*1512 _652_
*1513 _653_
*1514 _654_
*1515 _655_
*1516 _656_
*1517 _657_
*1518 _658_
*1519 _659_
*1520 _660_
*1521 _661_
*1522 _662_
*1523 _663_
*1524 _664_
*1525 _665_
*1526 _666_
*1527 _667_
*1528 _668_
*1529 _669_
*1530 _670_
*1531 _671_
*1532 _672_
*1533 _673_
*1534 _674_
*1535 _675_
*1536 _676_
*1537 _677_
*1538 _678_
*1539 _679_
*1540 _680_
*1541 _681_
*1542 _682_
*1543 _683_
*1544 _684_
*1545 _685_
*1546 _686_
*1547 _687_
*1548 _688_
*1549 _689_
*1550 _690_
*1551 _691_
*1552 _692_
*1553 _693_
*1554 _694_
*1555 _695_
*1556 _696_
*1557 _697_
*1558 _698_
*1559 _699_
*1560 _700_
*1561 _701_
*1562 _702_
*1563 _703_
*1564 _704_
*1565 _705_
*1566 _706_
*1567 _707_
*1568 _708_
*1569 _709_
*1570 _710_
*1571 _711_
*1572 _712_
*1573 _713_
*1574 _714_
*1575 _715_
*1576 _716_
*1577 _717_
*1578 _718_
*1579 _719_
*1580 _720_
*1581 _721_
*1582 _722_
*1583 _723_
*1584 _724_
*1585 _725_
*1586 _726_
*1587 _727_
*1588 _728_
*1589 _729_
*1590 _730_
*1591 _731_
*1592 _732_
*1593 _733_
*1594 _734_
*1595 _735_
*1596 _736_
*1597 _737_
*1598 _738_
*1599 _739_
*1600 _752_
*1601 _753_
*1602 _754_
*1603 _755_
*1604 _756_
*1605 _757_
*1606 _758_
*1607 _759_
*1608 _760_
*1609 _761_
*1610 _762_
*1611 _763_
*1612 _764_
*1613 _765_
*1614 _766_
*1615 _767_
*1616 _768_
*1617 _769_
*1618 _770_
*1619 _771_
*1620 _772_
*1621 _773_
*1622 _774_
*1623 _775_
*1624 _776_
*1625 _777_
*1626 _778_
*1627 _779_
*1628 _779__83
*1629 _780_
*1630 _781_
*1631 _782_
*1632 _783_
*1633 _784_
*1634 _785_
*1635 _786_
*1636 _787_
*1637 _788_
*1638 _789_
*1639 _790_
*1640 _791_
*1641 _792_
*1642 _793_
*1643 _794_
*1644 _795_
*1645 _796_
*1646 _797_
*1647 _797__84
*1648 _798_
*1649 _799_
*1650 _800_
*1651 _801_
*1652 _802_
*1653 _803_
*1654 _804_
*1655 _805_
*1656 _806_
*1657 _807_
*1658 _808_
*1659 _809_
*1660 _810_
*1661 _811_
*1662 _812_
*1663 _813_
*1664 _814_
*1665 _815_
*1666 _815__85
*1667 _816_
*1668 _817_
*1669 _818_
*1670 _819_
*1671 _820_
*1672 _821_
*1673 _822_
*1674 _823_