*SPEF "ieee 1481-1999"
*DESIGN "sb_1__0_"
*DATE "11:11:11 Fri 11 11, 1111"
*VENDOR "OpenRCX"
*PROGRAM "Parallel Extraction"
*VERSION "1.0"
*DESIGN_FLOW "NAME_SCOPE LOCAL" "PIN_CAP NONE"
*DIVIDER /
*DELIMITER :
*BUS_DELIMITER []
*T_UNIT 1 NS
*C_UNIT 1 PF
*R_UNIT 1 OHM
*L_UNIT 1 HENRY

*NAME_MAP
*1 ccff_head
*2 ccff_tail
*3 chanx_left_in[0]
*4 chanx_left_in[1]
*5 chanx_left_in[2]
*6 chanx_left_in[3]
*7 chanx_left_in[4]
*8 chanx_left_in[5]
*9 chanx_left_in[6]
*10 chanx_left_in[7]
*11 chanx_left_in[8]
*12 chanx_left_out[0]
*13 chanx_left_out[1]
*14 chanx_left_out[2]
*15 chanx_left_out[3]
*16 chanx_left_out[4]
*17 chanx_left_out[5]
*18 chanx_left_out[6]
*19 chanx_left_out[7]
*20 chanx_left_out[8]
*21 chanx_right_in[0]
*22 chanx_right_in[1]
*23 chanx_right_in[2]
*24 chanx_right_in[3]
*25 chanx_right_in[4]
*26 chanx_right_in[5]
*27 chanx_right_in[6]
*28 chanx_right_in[7]
*29 chanx_right_in[8]
*30 chanx_right_out[0]
*31 chanx_right_out[1]
*32 chanx_right_out[2]
*33 chanx_right_out[3]
*34 chanx_right_out[4]
*35 chanx_right_out[5]
*36 chanx_right_out[6]
*37 chanx_right_out[7]
*38 chanx_right_out[8]
*39 chany_top_in[0]
*40 chany_top_in[1]
*41 chany_top_in[2]
*42 chany_top_in[3]
*43 chany_top_in[4]
*44 chany_top_in[5]
*45 chany_top_in[6]
*46 chany_top_in[7]
*47 chany_top_in[8]
*48 chany_top_out[0]
*49 chany_top_out[1]
*50 chany_top_out[2]
*51 chany_top_out[3]
*52 chany_top_out[4]
*53 chany_top_out[5]
*54 chany_top_out[6]
*55 chany_top_out[7]
*56 chany_top_out[8]
*57 left_bottom_grid_top_width_0_height_0_subtile_0__pin_inpad_0_
*58 left_top_grid_bottom_width_0_height_0_subtile_0__pin_O_0_
*59 prog_clk
*60 right_bottom_grid_top_width_0_height_0_subtile_0__pin_inpad_0_
*61 right_top_grid_bottom_width_0_height_0_subtile_0__pin_O_0_
*62 top_left_grid_right_width_0_height_0_subtile_0__pin_O_3_
*63 top_right_grid_left_width_0_height_0_subtile_0__pin_O_1_
*66 _000_
*67 _001_
*68 _002_
*69 _003_
*70 _004_
*71 _005_
*72 _006_
*73 _007_
*74 _008_
*75 _009_
*76 _010_
*77 _011_
*78 _012_
*79 _013_
*80 _014_
*81 _015_
*82 _016_
*83 _017_
*84 _018_
*85 _019_
*86 _020_
*87 _021_
*88 _022_
*89 _023_
*90 _024_
*91 _025_
*92 _026_
*93 _027_
*94 _028_
*95 _029_
*96 _030_
*97 _031_
*98 _032_
*99 _033_
*100 _034_
*101 _035_
*102 _036_
*103 _037_
*104 _038_
*105 _039_
*106 _040_
*107 _041_
*108 _042_
*109 _043_
*110 _044_
*111 _045_
*112 _046_
*113 _047_
*114 _048_
*115 _049_
*116 _050_
*117 _051_
*118 _052_
*119 _053_
*120 _054_
*121 _055_
*122 _056_
*123 _057_
*124 _058_
*125 _059_
*126 _060_
*127 _061_
*128 _062_
*129 _063_
*130 _064_
*131 _065_
*132 _066_
*133 _067_
*134 _068_
*135 _069_
*136 _070_
*137 _071_
*138 _072_
*139 _073_
*140 _074_
*141 _075_
*142 _076_
*143 _077_
*144 _078_
*145 _079_
*146 _080_
*147 _081_
*148 _082_
*149 _083_
*150 _084_
*151 _085_
*152 _086_
*153 _087_
*154 _088_
*155 _089_
*156 _090_
*157 _091_
*158 _092_
*159 _093_
*160 _094_
*161 _095_
*162 _096_
*163 _097_
*164 _098_
*165 _099_
*166 _100_
*167 _101_
*168 _102_
*169 _103_
*170 _104_
*171 _105_
*172 _106_
*173 _107_
*174 _108_
*175 _109_
*176 _110_
*177 _111_
*178 _112_
*179 _113_
*180 _114_
*181 _115_
*182 _116_
*183 _117_
*184 _118_
*185 _119_
*186 _120_
*187 _121_
*188 _122_
*189 _123_
*190 _124_
*191 _125_
*192 _126_
*193 _127_
*194 _128_
*195 _129_
*196 _130_
*197 _131_
*198 _132_
*199 _133_
*200 _134_
*201 _135_
*202 _136_
*203 _137_
*204 _138_
*205 _139_
*206 _140_
*207 _141_
*208 _142_
*209 _143_
*210 _144_
*211 _145_
*212 _146_
*213 _147_
*214 _148_
*215 _149_
*216 clknet_0_prog_clk
*217 clknet_2_0__leaf_prog_clk
*218 clknet_2_1__leaf_prog_clk
*219 clknet_2_2__leaf_prog_clk
*220 clknet_2_3__leaf_prog_clk
*221 mem_left_track_1\.DFF_0_\.D
*222 mem_left_track_1\.DFF_0_\.Q
*223 mem_left_track_1\.DFF_1_\.Q
*224 mem_left_track_1\.DFF_2_\.Q
*225 mem_left_track_17\.DFF_0_\.D
*226 mem_left_track_17\.DFF_0_\.Q
*227 mem_left_track_17\.DFF_1_\.Q
*228 mem_left_track_9\.DFF_0_\.Q
*229 mem_left_track_9\.DFF_1_\.Q
*230 mem_right_track_0\.DFF_0_\.D
*231 mem_right_track_0\.DFF_0_\.Q
*232 mem_right_track_0\.DFF_1_\.Q
*233 mem_right_track_0\.DFF_2_\.Q
*234 mem_right_track_16\.DFF_0_\.D
*235 mem_right_track_16\.DFF_0_\.Q
*236 mem_right_track_16\.DFF_1_\.Q
*237 mem_right_track_8\.DFF_0_\.Q
*238 mem_right_track_8\.DFF_1_\.Q
*239 mem_top_track_0\.DFF_0_\.Q
*240 mem_top_track_0\.DFF_1_\.Q
*241 mem_top_track_0\.DFF_2_\.Q
*242 mem_top_track_14\.DFF_0_\.D
*243 mem_top_track_14\.DFF_0_\.Q
*244 mem_top_track_14\.DFF_1_\.Q
*245 mem_top_track_16\.DFF_0_\.Q
*246 mem_top_track_16\.DFF_1_\.Q
*247 mem_top_track_2\.DFF_0_\.Q
*248 mem_top_track_2\.DFF_1_\.Q
*249 mem_top_track_8\.DFF_0_\.Q
*250 mux_left_track_1\.INVTX1_0_\.out
*251 mux_left_track_1\.INVTX1_1_\.out
*252 mux_left_track_1\.INVTX1_2_\.out
*253 mux_left_track_1\.INVTX1_3_\.out
*254 mux_left_track_1\.INVTX1_4_\.out
*255 mux_left_track_1\.INVTX1_5_\.out
*256 mux_left_track_1\.mux_l1_in_0_\.TGATE_0_\.out
*257 mux_left_track_1\.mux_l1_in_1_\.TGATE_0_\.out
*258 mux_left_track_1\.mux_l1_in_2_\.TGATE_0_\.out
*259 mux_left_track_1\.mux_l2_in_0_\.TGATE_0_\.out
*260 mux_left_track_1\.mux_l2_in_1_\.TGATE_0_\.out
*261 mux_left_track_1\.mux_l3_in_0_\.TGATE_0_\.out
*262 mux_left_track_17\.INVTX1_0_\.out
*263 mux_left_track_17\.INVTX1_1_\.out
*264 mux_left_track_17\.INVTX1_2_\.out
*265 mux_left_track_17\.INVTX1_3_\.out
*266 mux_left_track_17\.INVTX1_4_\.out
*267 mux_left_track_17\.mux_l1_in_0_\.TGATE_0_\.out
*268 mux_left_track_17\.mux_l1_in_1_\.TGATE_0_\.out
*269 mux_left_track_17\.mux_l2_in_0_\.TGATE_0_\.out
*270 mux_left_track_17\.mux_l2_in_1_\.TGATE_0_\.out
*271 mux_left_track_17\.mux_l3_in_0_\.TGATE_0_\.out
*272 mux_left_track_9\.INVTX1_0_\.out
*273 mux_left_track_9\.INVTX1_1_\.out
*274 mux_left_track_9\.INVTX1_2_\.out
*275 mux_left_track_9\.INVTX1_3_\.out
*276 mux_left_track_9\.INVTX1_4_\.out
*277 mux_left_track_9\.INVTX1_5_\.out
*278 mux_left_track_9\.mux_l1_in_0_\.TGATE_0_\.out
*279 mux_left_track_9\.mux_l1_in_1_\.TGATE_0_\.out
*280 mux_left_track_9\.mux_l1_in_2_\.TGATE_0_\.out
*281 mux_left_track_9\.mux_l2_in_0_\.TGATE_0_\.out
*282 mux_left_track_9\.mux_l2_in_1_\.TGATE_0_\.out
*283 mux_left_track_9\.mux_l3_in_0_\.TGATE_0_\.out
*284 mux_right_track_0\.INVTX1_3_\.out
*285 mux_right_track_0\.INVTX1_4_\.out
*286 mux_right_track_0\.INVTX1_5_\.out
*287 mux_right_track_0\.mux_l1_in_0_\.TGATE_0_\.out
*288 mux_right_track_0\.mux_l1_in_1_\.TGATE_0_\.out
*289 mux_right_track_0\.mux_l1_in_2_\.TGATE_0_\.out
*290 mux_right_track_0\.mux_l2_in_0_\.TGATE_0_\.out
*291 mux_right_track_0\.mux_l2_in_1_\.TGATE_0_\.out
*292 mux_right_track_0\.mux_l3_in_0_\.TGATE_0_\.out
*293 mux_right_track_16\.INVTX1_3_\.out
*294 mux_right_track_16\.INVTX1_4_\.out
*295 mux_right_track_16\.mux_l1_in_0_\.TGATE_0_\.out
*296 mux_right_track_16\.mux_l1_in_1_\.TGATE_0_\.out
*297 mux_right_track_16\.mux_l2_in_0_\.TGATE_0_\.out
*298 mux_right_track_16\.mux_l2_in_1_\.TGATE_0_\.out
*299 mux_right_track_16\.mux_l3_in_0_\.TGATE_0_\.out
*300 mux_right_track_8\.INVTX1_3_\.out
*301 mux_right_track_8\.INVTX1_4_\.out
*302 mux_right_track_8\.INVTX1_5_\.out
*303 mux_right_track_8\.mux_l1_in_0_\.TGATE_0_\.out
*304 mux_right_track_8\.mux_l1_in_1_\.TGATE_0_\.out
*305 mux_right_track_8\.mux_l1_in_2_\.TGATE_0_\.out
*306 mux_right_track_8\.mux_l2_in_0_\.TGATE_0_\.out
*307 mux_right_track_8\.mux_l2_in_1_\.TGATE_0_\.out
*308 mux_right_track_8\.mux_l3_in_0_\.TGATE_0_\.out
*309 mux_top_track_0\.INVTX1_0_\.out
*310 mux_top_track_0\.INVTX1_2_\.out
*311 mux_top_track_0\.INVTX1_4_\.out
*312 mux_top_track_0\.mux_l1_in_0_\.TGATE_0_\.out
*313 mux_top_track_0\.mux_l1_in_1_\.TGATE_0_\.out
*314 mux_top_track_0\.mux_l2_in_0_\.TGATE_0_\.out
*315 mux_top_track_0\.mux_l2_in_1_\.TGATE_0_\.out
*316 mux_top_track_0\.mux_l3_in_0_\.TGATE_0_\.out
*317 mux_top_track_14\.INVTX1_1_\.out
*318 mux_top_track_14\.mux_l1_in_0_\.TGATE_0_\.out
*319 mux_top_track_14\.mux_l2_in_0_\.TGATE_0_\.out
*320 mux_top_track_16\.INVTX1_1_\.out
*321 mux_top_track_16\.INVTX1_3_\.out
*322 mux_top_track_16\.mux_l1_in_0_\.TGATE_0_\.out
*323 mux_top_track_16\.mux_l2_in_0_\.TGATE_0_\.out
*324 mux_top_track_16\.mux_l2_in_1_\.TGATE_0_\.out
*325 mux_top_track_16\.mux_l3_in_0_\.TGATE_0_\.out
*326 mux_top_track_2\.INVTX1_0_\.out
*327 mux_top_track_2\.INVTX1_2_\.out
*328 mux_top_track_2\.mux_l1_in_0_\.TGATE_0_\.out
*329 mux_top_track_2\.mux_l1_in_1_\.TGATE_0_\.out
*330 mux_top_track_2\.mux_l2_in_0_\.TGATE_0_\.out
*331 mux_top_track_8\.mux_l1_in_0_\.TGATE_0_\.out
*332 mux_top_track_8\.mux_l2_in_0_\.TGATE_0_\.out
*333 net1
*334 net10
*335 net100
*336 net101
*337 net102
*338 net11
*339 net12
*340 net13
*341 net14
*342 net15
*343 net16
*344 net17
*345 net18
*346 net19
*347 net2
*348 net20
*349 net21
*350 net22
*351 net23
*352 net24
*353 net25
*354 net26
*355 net27
*356 net28
*357 net29
*358 net3
*359 net30
*360 net31
*361 net32
*362 net33
*363 net34
*364 net35
*365 net36
*366 net37
*367 net38
*368 net39
*369 net4
*370 net40
*371 net41
*372 net42
*373 net43
*374 net44
*375 net45
*376 net46
*377 net47
*378 net48
*379 net49
*380 net5
*381 net50
*382 net51
*383 net52
*384 net53
*385 net54
*386 net55
*387 net56
*388 net57
*389 net58
*390 net59
*391 net6
*392 net60
*393 net61
*394 net62
*395 net63
*396 net64
*397 net65
*398 net66
*399 net67
*400 net68
*401 net69
*402 net7
*403 net70
*404 net71
*405 net72
*406 net73
*407 net74
*408 net75
*409 net76
*410 net77
*411 net78
*412 net79
*413 net8
*414 net80
*415 net81
*416 net82
*417 net83
*418 net84
*419 net85
*420 net86
*421 net87
*422 net88
*423 net89
*424 net9
*425 net90
*426 net91
*427 net92
*428 net93
*429 net94
*430 net95
*431 net96
*432 net97
*433 net98
*434 net99
*435 FILLER_0_0_108
*436 FILLER_0_0_119
*437 FILLER_0_0_126
*438 FILLER_0_0_135
*439 FILLER_0_0_139
*440 FILLER_0_0_141
*441 FILLER_0_0_18
*442 FILLER_0_0_27
*443 FILLER_0_0_29
*444 FILLER_0_0_36
*445 FILLER_0_0_45
*446 FILLER_0_0_54
*447 FILLER_0_0_63
*448 FILLER_0_0_72
*449 FILLER_0_0_81
*450 FILLER_0_0_9
*451 FILLER_0_0_91
*452 FILLER_0_0_99
*453 FILLER_0_10_103
*454 FILLER_0_10_115
*455 FILLER_0_10_127
*456 FILLER_0_10_139
*457 FILLER_0_10_141
*458 FILLER_0_10_145
*459 FILLER_0_10_27
*460 FILLER_0_10_29
*461 FILLER_0_10_3
*462 FILLER_0_10_72
*463 FILLER_0_10_83
*464 FILLER_0_10_85
*465 FILLER_0_11_110
*466 FILLER_0_11_113
*467 FILLER_0_11_122
*468 FILLER_0_11_134
*469 FILLER_0_11_140
*470 FILLER_0_11_144
*471 FILLER_0_11_3
*472 FILLER_0_11_57
*473 FILLER_0_12_118
*474 FILLER_0_12_139
*475 FILLER_0_12_144
*476 FILLER_0_12_17
*477 FILLER_0_12_21
*478 FILLER_0_12_27
*479 FILLER_0_12_60
*480 FILLER_0_12_7
*481 FILLER_0_12_83
*482 FILLER_0_12_85
*483 FILLER_0_12_95
*484 FILLER_0_13_110
*485 FILLER_0_13_130
*486 FILLER_0_13_34
*487 FILLER_0_13_39
*488 FILLER_0_13_47
*489 FILLER_0_13_53
*490 FILLER_0_13_68
*491 FILLER_0_14_106
*492 FILLER_0_14_139
*493 FILLER_0_14_141
*494 FILLER_0_14_22
*495 FILLER_0_14_29
*496 FILLER_0_14_41
*497 FILLER_0_14_7
*498 FILLER_0_14_78
*499 FILLER_0_14_82
*500 FILLER_0_14_88
*501 FILLER_0_14_96
*502 FILLER_0_15_111
*503 FILLER_0_15_135
*504 FILLER_0_15_27
*505 FILLER_0_15_3
*506 FILLER_0_15_49
*507 FILLER_0_15_57
*508 FILLER_0_15_7
*509 FILLER_0_15_94
*510 FILLER_0_16_109
*511 FILLER_0_16_139
*512 FILLER_0_16_144
*513 FILLER_0_16_44
*514 FILLER_0_17_102
*515 FILLER_0_17_111
*516 FILLER_0_17_132
*517 FILLER_0_17_34
*518 FILLER_0_17_46
*519 FILLER_0_17_54
*520 FILLER_0_17_57
*521 FILLER_0_17_6
*522 FILLER_0_18_130
*523 FILLER_0_18_144
*524 FILLER_0_18_15
*525 FILLER_0_18_24
*526 FILLER_0_18_3
*527 FILLER_0_18_37
*528 FILLER_0_18_56
*529 FILLER_0_18_8
*530 FILLER_0_18_82
*531 FILLER_0_18_91
*532 FILLER_0_19_102
*533 FILLER_0_19_116
*534 FILLER_0_19_3
*535 FILLER_0_1_101
*536 FILLER_0_1_105
*537 FILLER_0_1_111
*538 FILLER_0_1_113
*539 FILLER_0_1_12
*540 FILLER_0_1_120
*541 FILLER_0_1_126
*542 FILLER_0_1_144
*543 FILLER_0_1_24
*544 FILLER_0_1_35
*545 FILLER_0_1_43
*546 FILLER_0_1_48
*547 FILLER_0_1_57
*548 FILLER_0_1_62
*549 FILLER_0_1_74
*550 FILLER_0_1_79
*551 FILLER_0_1_87
*552 FILLER_0_1_93
*553 FILLER_0_20_117
*554 FILLER_0_20_139
*555 FILLER_0_20_141
*556 FILLER_0_20_145
*557 FILLER_0_20_44
*558 FILLER_0_20_54
*559 FILLER_0_20_9
*560 FILLER_0_21_132
*561 FILLER_0_21_17
*562 FILLER_0_21_38
*563 FILLER_0_21_42
*564 FILLER_0_21_52
*565 FILLER_0_21_76
*566 FILLER_0_21_93
*567 FILLER_0_21_97
*568 FILLER_0_22_137
*569 FILLER_0_22_141
*570 FILLER_0_22_18
*571 FILLER_0_22_24
*572 FILLER_0_22_29
*573 FILLER_0_22_38
*574 FILLER_0_22_57
*575 FILLER_0_22_6
*576 FILLER_0_22_77
*577 FILLER_0_22_85
*578 FILLER_0_23_111
*579 FILLER_0_23_15
*580 FILLER_0_23_24
*581 FILLER_0_23_3
*582 FILLER_0_23_36
*583 FILLER_0_23_47
*584 FILLER_0_23_55
*585 FILLER_0_23_57
*586 FILLER_0_23_70
*587 FILLER_0_23_99
*588 FILLER_0_24_118
*589 FILLER_0_24_144
*590 FILLER_0_24_15
*591 FILLER_0_24_27
*592 FILLER_0_24_29
*593 FILLER_0_24_3
*594 FILLER_0_24_35
*595 FILLER_0_24_44
*596 FILLER_0_24_72
*597 FILLER_0_25_110
*598 FILLER_0_25_113
*599 FILLER_0_25_117
*600 FILLER_0_25_125
*601 FILLER_0_25_130
*602 FILLER_0_25_138
*603 FILLER_0_25_3
*604 FILLER_0_25_54
*605 FILLER_0_25_66
*606 FILLER_0_25_83
*607 FILLER_0_25_87
*608 FILLER_0_25_91
*609 FILLER_0_26_129
*610 FILLER_0_26_144
*611 FILLER_0_26_15
*612 FILLER_0_26_29
*613 FILLER_0_26_38
*614 FILLER_0_26_79
*615 FILLER_0_27_101
*616 FILLER_0_27_109
*617 FILLER_0_27_125
*618 FILLER_0_27_133
*619 FILLER_0_27_144
*620 FILLER_0_27_29
*621 FILLER_0_27_3
*622 FILLER_0_27_46
*623 FILLER_0_27_83
*624 FILLER_0_27_85
*625 FILLER_0_27_93
*626 FILLER_0_2_109
*627 FILLER_0_2_121
*628 FILLER_0_2_133
*629 FILLER_0_2_139
*630 FILLER_0_2_141
*631 FILLER_0_2_18
*632 FILLER_0_2_26
*633 FILLER_0_2_29
*634 FILLER_0_2_41
*635 FILLER_0_2_47
*636 FILLER_0_2_59
*637 FILLER_0_2_6
*638 FILLER_0_2_71
*639 FILLER_0_2_83
*640 FILLER_0_2_85
*641 FILLER_0_2_97
*642 FILLER_0_3_100
*643 FILLER_0_3_113
*644 FILLER_0_3_125
*645 FILLER_0_3_137
*646 FILLER_0_3_145
*647 FILLER_0_3_15
*648 FILLER_0_3_27
*649 FILLER_0_3_3
*650 FILLER_0_3_39
*651 FILLER_0_3_51
*652 FILLER_0_3_55
*653 FILLER_0_3_57
*654 FILLER_0_3_69
*655 FILLER_0_3_81
*656 FILLER_0_3_88
*657 FILLER_0_4_109
*658 FILLER_0_4_121
*659 FILLER_0_4_133
*660 FILLER_0_4_139
*661 FILLER_0_4_141
*662 FILLER_0_4_18
*663 FILLER_0_4_26
*664 FILLER_0_4_29
*665 FILLER_0_4_41
*666 FILLER_0_4_53
*667 FILLER_0_4_6
*668 FILLER_0_4_61
*669 FILLER_0_4_80
*670 FILLER_0_4_85
*671 FILLER_0_4_97
*672 FILLER_0_5_100
*673 FILLER_0_5_113
*674 FILLER_0_5_125
*675 FILLER_0_5_137
*676 FILLER_0_5_145
*677 FILLER_0_5_15
*678 FILLER_0_5_27
*679 FILLER_0_5_3
*680 FILLER_0_5_39
*681 FILLER_0_5_47
*682 FILLER_0_5_57
*683 FILLER_0_5_74
*684 FILLER_0_5_88
*685 FILLER_0_6_100
*686 FILLER_0_6_112
*687 FILLER_0_6_123
*688 FILLER_0_6_135
*689 FILLER_0_6_139
*690 FILLER_0_6_141
*691 FILLER_0_6_145
*692 FILLER_0_6_18
*693 FILLER_0_6_26
*694 FILLER_0_6_29
*695 FILLER_0_6_41
*696 FILLER_0_6_53
*697 FILLER_0_6_6
*698 FILLER_0_6_63
*699 FILLER_0_6_75
*700 FILLER_0_6_93
*701 FILLER_0_7_109
*702 FILLER_0_7_113
*703 FILLER_0_7_120
*704 FILLER_0_7_132
*705 FILLER_0_7_140
*706 FILLER_0_7_22
*707 FILLER_0_7_3
*708 FILLER_0_7_34
*709 FILLER_0_7_46
*710 FILLER_0_7_54
*711 FILLER_0_7_79
*712 FILLER_0_7_8
*713 FILLER_0_8_109
*714 FILLER_0_8_121
*715 FILLER_0_8_133
*716 FILLER_0_8_139
*717 FILLER_0_8_141
*718 FILLER_0_8_145
*719 FILLER_0_8_27
*720 FILLER_0_8_41
*721 FILLER_0_8_66
*722 FILLER_0_8_97
*723 FILLER_0_9_105
*724 FILLER_0_9_111
*725 FILLER_0_9_113
*726 FILLER_0_9_125
*727 FILLER_0_9_137
*728 FILLER_0_9_3
*729 FILLER_0_9_36
*730 FILLER_0_9_41
*731 FILLER_0_9_45
*732 FILLER_0_9_53
*733 FILLER_0_9_93
*734 PHY_0
*735 PHY_1
*736 PHY_10
*737 PHY_11
*738 PHY_12
*739 PHY_13
*740 PHY_14
*741 PHY_15
*742 PHY_16
*743 PHY_17
*744 PHY_18
*745 PHY_19
*746 PHY_2
*747 PHY_20
*748 PHY_21
*749 PHY_22
*750 PHY_23
*751 PHY_24
*752 PHY_25
*753 PHY_26
*754 PHY_27
*755 PHY_28
*756 PHY_29
*757 PHY_3
*758 PHY_30
*759 PHY_31
*760 PHY_32
*761 PHY_33
*762 PHY_34
*763 PHY_35
*764 PHY_36
*765 PHY_37
*766 PHY_38
*767 PHY_39
*768 PHY_4
*769 PHY_40
*770 PHY_41
*771 PHY_42
*772 PHY_43
*773 PHY_44
*774 PHY_45
*775 PHY_46
*776 PHY_47
*777 PHY_48
*778 PHY_49
*779 PHY_5
*780 PHY_50
*781 PHY_51
*782 PHY_52
*783 PHY_53
*784 PHY_54
*785 PHY_55
*786 PHY_6
*787 PHY_7
*788 PHY_8
*789 PHY_9
*790 TAP_100
*791 TAP_101
*792 TAP_102
*793 TAP_103
*794 TAP_104
*795 TAP_105
*796 TAP_106
*797 TAP_107
*798 TAP_108
*799 TAP_109
*800 TAP_110
*801 TAP_111
*802 TAP_112
*803 TAP_113
*804 TAP_114
*805 TAP_115
*806 TAP_116
*807 TAP_117
*808 TAP_118
*809 TAP_119
*810 TAP_120
*811 TAP_121
*812 TAP_122
*813 TAP_123
*814 TAP_124
*815 TAP_125
*816 TAP_126
*817 TAP_127
*818 TAP_128
*819 TAP_129
*820 TAP_130
*821 TAP_56
*822 TAP_57
*823 TAP_58
*824 TAP_59
*825 TAP_60
*826 TAP_61
*827 TAP_62
*828 TAP_63
*829 TAP_64
*830 TAP_65
*831 TAP_66
*832 TAP_67
*833 TAP_68
*834 TAP_69
*835 TAP_70
*836 TAP_71
*837 TAP_72
*838 TAP_73
*839 TAP_74
*840 TAP_75
*841 TAP_76
*842 TAP_77
*843 TAP_78
*844 TAP_79
*845 TAP_80
*846 TAP_81
*847 TAP_82
*848 TAP_83
*849 TAP_84
*850 TAP_85
*851 TAP_86
*852 TAP_87
*853 TAP_88
*854 TAP_89
*855 TAP_90
*856 TAP_91
*857 TAP_92
*858 TAP_93
*859 TAP_94
*860 TAP_95
*861 TAP_96
*862 TAP_97
*863 TAP_98
*864 TAP_99
*865 _161_
*866 _162_
*867 _163_
*868 _164_
*869 _165_
*870 _166_
*871 _167_
*872 _168_
*873 _169_
*874 _170_
*875 _171_
*876 _172_
*877 _173_
*878 _174_
*879 _175_
*880 _176_
*881 _177_
*882 _178_
*883 _179_
*884 _180_
*885 _181_
*886 _182_
*887 _183_
*888 _184_
*889 _185_
*890 _186_
*891 _187_
*892 _188_
*893 _189_
*894 _190_
*895 _191_
*896 _192_
*897 _193_
*898 _194_
*899 _195_
*900 _196_
*901 _197_
*902 _198_
*903 _199_
*904 _200_
*905 _201_
*906 _202_
*907 _203_
*908 _204_
*909 _205_
*910 _206_
*911 _207_
*912 _208_
*913 _209_
*914 _210_
*915 _211_
*916 _212_
*917 _213_
*918 _214_
*919 _215_
*920 _216_
*921 _217_
*922 _218_
*923 _219_
*924 _220_
*925 _221_
*926 _222_
*927 _223_
*928 _224_
*929 _225_
*930 _226_
*931 _227_
*932 _228_
*933 _229_
*934 _230_
*935 _231_
*936 _232_
*937 _233_
*938 _234_
*939 _235_
*940 _236_
*941 _237_
*942 _238_
*943 _239_
*944 _240_
*945 _241_
*946 _242_
*947 _243_
*948 _244_
*949 _245_
*950 _246_
*951 _247_
*952 _248_
*953 _249_
*954 _250_
*955 _251_
*956 _252_
*957 _253_
*958 _254_
*959 _255_
*960 _256_
*961 _257_
*962 _258_
*963 _259_
*964 _260_
*965 _261_
*966 _262_
*967 _263_
*968 _264_
*969 _265_
*970 _266_
*971 _267_
*972 _268_
*973 _269_
*974 _270_
*975 _271_
*976 _272_
*977 _273_
*978 _274_
*979 _275_
*980 _276_
*981 _277_
*982 _278_
*983 _279_
*984 _280_
*985 _281_
*986 _282_
*987 _283_
*988 _284_
*989 _285_
*990 _286_
*991 _287_
*992 _288_
*993 _289_
*994 _290_
*995 _291_
*996 _292_
*997 _293_
*998 _294_
*999 _295_
*1000 _296_
*1001 _297_
*1002 _298_
*1003 _299_
*1004 _300_
*1005 _301_
*1006 _302_
*1007 _303_
*1008 _304_
*1009 _305_
*1010 _306_
*1011 _307_
*1012 _308_
*1013 _309_
*1014 _310_
*1015 _311_
*1016 _312_
*1017 _313_
*1018 _314_
*1019 _315_
*1020 _316_
*1021 _317_
*1022 _318_
*1023 _319_
*1024 _320_
*1025 _321_
*1026 _322_
*1027 _323_
*1028 _324_
*1029 _325_
*1030 _326_
*1031 _327_
*1032 _328_
*1033 _329_
*1034 _330_
*1035 _331_
*1036 _332_
*1037 _333_
*1038 _334_
*1039 _335_
*1040 _336_
*1041 _337_
*1042 _338_
*1043 _339_
*1044 _340_
*1045 _341_
*1046 _342_
*1047 _343_
*1048 _344_
*1049 _345_
*1050 _346_
*1051 _347_
*1052 _348_
*1053 _349_
*1054 _350_
*1055 _351_
*1056 _352_
*1057 _353_
*1058 _354_
*1059 _355_
*1060 _356_
*1061 _357_
*1062 _358_
*1063 _359_
*1064 _360_
*1065 _361_
*1066 _362_
*1067 _363_
*1068 _364_
*1069 _365_
*1070 _366_
*1071 _367_
*1072 _368_
*1073 _369_
*1074 _370_
*1075 _371_
*1076 _372_
*1077 _373_
*1078 _374_
*1079 _375_
*1080 _376_
*1081 _377_
*1082 _378_
*1083 _379_
*1084 _380_
*1085 _381_
*1086 _382_
*1087 _383_
*1088 _384_
*1089 _396_
*1090 _397_
*1091 _398_
*1092 _399_
*1093 _400_
*1094 _401_
*1095 _402_
*1096 _403_
*1097 _404_
*1098 _405_
*1099 _406_
*1100 _407_
*1101 _408_
*1102 _409_
*1103 _410_
*1104 _411_
*1105 _412_
*1106 _412__63
*1107 _413_
*1108 _414_
*1109 _415_
*1110 _416_
*1111 _417_
*1112 _418_
*1113 _419_
*1114 _420_
*1115 _421_
*1116 _422_
*1117 _423_
*1118 _423__64
*1119 _424_
*1120 _425_
*1121 _426_
*1122 _427_
*1123 _428_
*1124 _429_
*1125 _430_
*1126 _431_
*1127 _432_
*1128 _433_
*1129 _433__65
*1130 _434_
*1131 _435_
*1132 _436_
*1133 _437_
*1134 _438_
*1135 _439_
*1136 _440_
*1137 _441_
*1138 _442_
*1139 _443_
*1140 _443__66
*1141 _444_
*1142 _445_
*1143 _446_
*1144 _447_
*1145 _448_
*1146 _448__67
*1147 _449_
*1148 _450_
*1149 _451_
*1150 _452_
*1151 _452__68
*1152 _453_
*1153 _454_
*1154 _455_
*1155 _456_
*1156 _457_
*1157 _457__69
*1158 _458_
*1159 _459_
*1160 _460_
*1161 _461_
*1162 _462_
*1163 _463_
*1164 _464_
*1165 _465_
*1166 _465__70
*1167 _466_
*1168 _467_
*1169 _468_
*1170 _469_
*1171 _470_
*1172 _471_
*1173 _472_
*1174 _473_
*1175 _474_
*1176 _475_
*1177 _476_
*1178 _477_
*1179 _477__71
*1180 _478_
*1181 _479_
*1182 _480_
*1183 _481_
*1184 _482_
*1185 _483_
*1186 _484_
*1187 _485_
*1188 _486_
*1189 _487_
*1190 _488_
*1191 _489_
*1192 _489__72
*1193 _490_
*1194 _491_
*1195 _492_
*1196 _493_
*1197 _494_
*1198 _495_
*1199 _496_
*1200 _497_
*1201 _498_
*1202 _499_
*1203 _500_
*1204 _501_
*1205 _501__73
*1206 _502_
*1207 _503_
*1208 _504_
*1209 _505_
*1210 _506_
*1211 _507_
*1212 _508_
*1213 _509_
*1214 _510_
*1215 _511_
*1216 clkbuf_0_prog_clk
*1217 clkbuf_2_0__f_prog_clk
*1218 clkbuf_2_1__f_prog_clk
*1219 clkbuf_2_2__f_prog_clk
*1220 clkbuf_2_3__f_prog_clk
*1221 hold1
*1222 hold10
*1223 hold11
*1224 hold12
*1225 hold13
*1226 hold14
*1227 hold15
*1228 hold16
*1229 hold17
*1230 hold18
*1231 hold19
*1232 hold2
*1233 hold20
*1234 hold21
*1235 hold22
*1236 hold23
*1237 hold24
*1238 hold25
*1239 hold26
*1240 hold27
*1241 hold28
*1242 hold29
*1243 hold3
*1244 hold4
*1245 hold5
*1246 hold6
*1247 hold7
*1248 hold8
*1249 hold9
*1250 input1
*1251 input10
*1252 input11
*1253 input12
*1254 input13
*1255 input14
*1256 input15
*1257 input16
*1258 input17
*1259 input18
*1260 input19
*1261 input2
*1262 input20
*1263 input21
*1264 input22
*1265 input23
*1266 input24
*1267 input25
*1268 input26
*1269 input27
*1270 input28
*1271 input29
*1272 input3
*1273 input30
*1274 input31
*1275 input32
*1276 input33
*1277 input34
*1278 input4
*1279 input5
*1280 input6
*1281 input7
*1282 input8
*1283 input9
*1284 output35
*1285 output36
*1286 output37
*1287 output38
*1288 output39
*1289 output40
*1290 output41
*1291 output42
*1292 output43
*1293 output44
*1294 output45
*1295 output46
*1296 output47
*1297 output48
*1298 output49
*1299 output50
*1300 output51
*1301 output52
*1302 output53
*1303 output54
*1304 output55
*1305 output56
*1306 output57
*1307 output58
*1308 output59
*1309 output60
*1310 output61
*1311 output62

*PORTS
ccff_head I
ccff_tail O
chanx_left_in[0] I
chanx_left_in[1] I
chanx_left_in[2] I
chanx_left_in[3] I
chanx_left_in[4] I
chanx_left_in[5] I
chanx_left_in[6] I
chanx_left_in[7] I
chanx_left_in[8] I
chanx_left_out[0] O
chanx_left_out[1] O
chanx_left_out[2] O
chanx_left_out[3] O
chanx_left_out[4] O
chanx_left_out[5] O
chanx_left_out[6] O
chanx_left_out[7] O
chanx_left_out[8] O
chanx_right_in[0] I
chanx_right_in[1] I
chanx_right_in[2] I
chanx_right_in[3] I
chanx_right_in[4] I
chanx_right_in[5] I
chanx_right_in[6] I
chanx_right_in[7] I
chanx_right_in[8] I
chanx_right_out[0] O
chanx_right_out[1] O
chanx_right_out[2] O
chanx_right_out[3] O
chanx_right_out[4] O
chanx_right_out[5] O
chanx_right_out[6] O
chanx_right_out[7] O
chanx_right_out[8] O
chany_top_in[0] I
chany_top_in[1] I
chany_top_in[2] I
chany_top_in[3] I
chany_top_in[4] I
chany_top_in[5] I
chany_top_in[6] I
chany_top_in[7] I
chany_top_in[8] I
chany_top_out[0] O
chany_top_out[1] O
chany_top_out[2] O
chany_top_out[3] O
chany_top_out[4] O
chany_top_out[5] O
chany_top_out[6] O
chany_top_out[7] O
chany_top_out[8] O
left_bottom_grid_top_width_0_height_0_subtile_0__pin_inpad_0_ I
left_top_grid_bottom_width_0_height_0_subtile_0__pin_O_0_ I
prog_clk I
right_bottom_grid_top_width_0_height_0_subtile_0__pin_inpad_0_ I
right_top_grid_bottom_width_0_height_0_subtile_0__pin_O_0_ I
top_left_grid_right_width_0_height_0_subtile_0__pin_O_3_ I
top_right_grid_left_width_0_height_0_subtile_0__pin_O_1_ I

*D_NET *1 0.000925867
*CONN
*P ccff_head I
*I *1250:A I *D sky130_fd_sc_hd__buf_1
*CAP
1 ccff_head 0.000441451
2 *1250:A 0.000441451
3 *1250:A ccff_tail 0
4 *1250:A *1274:A 0
5 *1250:A *360:10 4.29654e-05
*RES
1 ccff_head *1250:A 21.0686 
*END

*D_NET *2 0.00095692
*CONN
*P ccff_tail O
*I *1284:X O *D sky130_fd_sc_hd__buf_2
*CAP
1 ccff_tail 0.00047846
2 *1284:X 0.00047846
3 ccff_tail *1252:A 0
4 ccff_tail *1284:A 0
5 ccff_tail *333:12 0
6 *1250:A ccff_tail 0
*RES
1 *1284:X ccff_tail 21.3215 
*END

*D_NET *3 0.000693124
*CONN
*P chanx_left_in[0] I
*I *1261:A I *D sky130_fd_sc_hd__buf_1
*CAP
1 chanx_left_in[0] 0.000346562
2 *1261:A 0.000346562
3 *1261:A chanx_left_out[0] 0
4 *1261:A *1272:A 0
*RES
1 chanx_left_in[0] *1261:A 21.7625 
*END

*D_NET *4 0.00054078
*CONN
*P chanx_left_in[1] I
*I *1272:A I *D sky130_fd_sc_hd__buf_1
*CAP
1 chanx_left_in[1] 0.00027039
2 *1272:A 0.00027039
3 *1272:A *1278:A 0
4 *1261:A *1272:A 0
*RES
1 chanx_left_in[1] *1272:A 20.5482 
*END

*D_NET *5 0.00137605
*CONN
*P chanx_left_in[2] I
*I *1278:A I *D sky130_fd_sc_hd__buf_1
*CAP
1 chanx_left_in[2] 0.000551928
2 *1278:A 0.000551928
3 *1278:A *892:A 4.22908e-05
4 *1278:A *898:A 0.000144773
5 *1278:A *1279:A 8.51263e-05
6 *1272:A *1278:A 0
*RES
1 chanx_left_in[2] *1278:A 25.2823 
*END

*D_NET *6 0.00142195
*CONN
*P chanx_left_in[3] I
*I *1279:A I *D sky130_fd_sc_hd__clkbuf_1
*CAP
1 chanx_left_in[3] 0.000466359
2 *1279:A 0.000466359
3 *1279:A *1017:A 0.000404108
4 *1279:A *1280:A 0
5 *1278:A *1279:A 8.51263e-05
*RES
1 chanx_left_in[3] *1279:A 24.0912 
*END

*D_NET *7 0.000706243
*CONN
*P chanx_left_in[4] I
*I *1280:A I *D sky130_fd_sc_hd__clkbuf_2
*CAP
1 chanx_left_in[4] 0.000353121
2 *1280:A 0.000353121
3 *1280:A *897:A 0
4 *1280:A *1281:A 0
5 *1279:A *1280:A 0
*RES
1 chanx_left_in[4] *1280:A 21.8697 
*END

*D_NET *8 0.000580155
*CONN
*P chanx_left_in[5] I
*I *1281:A I *D sky130_fd_sc_hd__clkbuf_2
*CAP
1 chanx_left_in[5] 0.000290078
2 *1281:A 0.000290078
3 *1281:A *1282:A 0
4 *1281:A *255:10 0
5 *1280:A *1281:A 0
*RES
1 chanx_left_in[5] *1281:A 20.6554 
*END

*D_NET *9 0.000689314
*CONN
*P chanx_left_in[6] I
*I *1282:A I *D sky130_fd_sc_hd__buf_1
*CAP
1 chanx_left_in[6] 0.000344657
2 *1282:A 0.000344657
3 *1282:A *1283:A 0
4 *1282:A *229:14 0
5 *1282:A *255:10 0
6 *1281:A *1282:A 0
*RES
1 chanx_left_in[6] *1282:A 22.0661 
*END

*D_NET *10 0.000778434
*CONN
*P chanx_left_in[7] I
*I *1283:A I *D sky130_fd_sc_hd__clkbuf_1
*CAP
1 chanx_left_in[7] 0.000389217
2 *1283:A 0.000389217
3 *1283:A *1035:A 0
4 *1283:A *1251:A 0
5 *1283:A *255:10 0
6 *1282:A *1283:A 0
*RES
1 chanx_left_in[7] *1283:A 22.9768 
*END

*D_NET *11 0.000659607
*CONN
*P chanx_left_in[8] I
*I *1251:A I *D sky130_fd_sc_hd__clkbuf_1
*CAP
1 chanx_left_in[8] 0.000329804
2 *1251:A 0.000329804
3 *1251:A *1032:A 0
4 *1251:A *59:23 0
5 *1251:A *255:10 0
6 *1283:A *1251:A 0
*RES
1 chanx_left_in[8] *1251:A 21.7625 
*END

*D_NET *12 0.00154545
*CONN
*P chanx_left_out[0] O
*I *1285:X O *D sky130_fd_sc_hd__clkbuf_4
*CAP
1 chanx_left_out[0] 0.000772724
2 *1285:X 0.000772724
3 chanx_left_out[0] chanx_left_out[1] 0
4 *1261:A chanx_left_out[0] 0
*RES
1 *1285:X chanx_left_out[0] 27.7643 
*END

*D_NET *13 0.0008017
*CONN
*P chanx_left_out[1] O
*I *1286:X O *D sky130_fd_sc_hd__clkbuf_4
*CAP
1 chanx_left_out[1] 0.00040085
2 *1286:X 0.00040085
3 chanx_left_out[1] chanx_left_out[2] 0
4 chanx_left_out[0] chanx_left_out[1] 0
*RES
1 *1286:X chanx_left_out[1] 21.5321 
*END

*D_NET *14 0.000801387
*CONN
*P chanx_left_out[2] O
*I *1287:X O *D sky130_fd_sc_hd__clkbuf_4
*CAP
1 chanx_left_out[2] 0.000400693
2 *1287:X 0.000400693
3 chanx_left_out[2] chanx_left_out[3] 0
4 chanx_left_out[1] chanx_left_out[2] 0
*RES
1 *1287:X chanx_left_out[2] 21.5321 
*END

*D_NET *15 0.000847957
*CONN
*P chanx_left_out[3] O
*I *1288:X O *D sky130_fd_sc_hd__clkbuf_4
*CAP
1 chanx_left_out[3] 0.000423978
2 *1288:X 0.000423978
3 chanx_left_out[3] chanx_left_out[4] 0
4 chanx_left_out[2] chanx_left_out[3] 0
*RES
1 *1288:X chanx_left_out[3] 21.5321 
*END

*D_NET *16 0.000819427
*CONN
*P chanx_left_out[4] O
*I *1289:X O *D sky130_fd_sc_hd__clkbuf_4
*CAP
1 chanx_left_out[4] 0.000409714
2 *1289:X 0.000409714
3 chanx_left_out[4] chanx_left_out[5] 0
4 chanx_left_out[3] chanx_left_out[4] 0
*RES
1 *1289:X chanx_left_out[4] 21.5321 
*END

*D_NET *17 0.000861087
*CONN
*P chanx_left_out[5] O
*I *1290:X O *D sky130_fd_sc_hd__clkbuf_4
*CAP
1 chanx_left_out[5] 0.000430544
2 *1290:X 0.000430544
3 chanx_left_out[5] chanx_left_out[6] 0
4 chanx_left_out[4] chanx_left_out[5] 0
*RES
1 *1290:X chanx_left_out[5] 23.6393 
*END

*D_NET *18 0.000997171
*CONN
*P chanx_left_out[6] O
*I *1291:X O *D sky130_fd_sc_hd__clkbuf_4
*CAP
1 chanx_left_out[6] 0.000484937
2 *1291:X 0.000484937
3 chanx_left_out[6] chanx_left_out[7] 0
4 chanx_left_out[6] *366:18 2.72967e-05
5 chanx_left_out[5] chanx_left_out[6] 0
*RES
1 *1291:X chanx_left_out[6] 23.2107 
*END

*D_NET *19 0.000807192
*CONN
*P chanx_left_out[7] O
*I *1292:X O *D sky130_fd_sc_hd__clkbuf_4
*CAP
1 chanx_left_out[7] 0.000403596
2 *1292:X 0.000403596
3 chanx_left_out[7] chanx_left_out[8] 0
4 chanx_left_out[6] chanx_left_out[7] 0
*RES
1 *1292:X chanx_left_out[7] 21.5321 
*END

*D_NET *20 0.000785493
*CONN
*P chanx_left_out[8] O
*I *1293:X O *D sky130_fd_sc_hd__clkbuf_4
*CAP
1 chanx_left_out[8] 0.000392746
2 *1293:X 0.000392746
3 chanx_left_out[8] chanx_right_out[0] 0
4 chanx_left_out[7] chanx_left_out[8] 0
*RES
1 *1293:X chanx_left_out[8] 21.6571 
*END

*D_NET *21 0.000813256
*CONN
*P chanx_right_in[0] I
*I *1252:A I *D sky130_fd_sc_hd__buf_1
*CAP
1 chanx_right_in[0] 0.000396743
2 *1252:A 0.000396743
3 *1252:A *1253:A 0
4 *1252:A *1284:A 0
5 *1252:A *338:8 1.97695e-05
6 ccff_tail *1252:A 0
*RES
1 chanx_right_in[0] *1252:A 22.2632 
*END

*D_NET *22 0.000677845
*CONN
*P chanx_right_in[1] I
*I *1253:A I *D sky130_fd_sc_hd__buf_1
*CAP
1 chanx_right_in[1] 0.000338922
2 *1253:A 0.000338922
3 *1253:A *1254:A 0
4 *1253:A *1284:A 0
5 *1253:A *339:18 0
6 *1252:A *1253:A 0