*SPEF "ieee 1481-1999"
*DESIGN "sb_8__1_"
*DATE "11:11:11 Fri 11 11, 1111"
*VENDOR "OpenRCX"
*PROGRAM "Parallel Extraction"
*VERSION "1.0"
*DESIGN_FLOW "NAME_SCOPE LOCAL" "PIN_CAP NONE"
*DIVIDER /
*DELIMITER :
*BUS_DELIMITER []
*T_UNIT 1 NS
*C_UNIT 1 PF
*R_UNIT 1 OHM
*L_UNIT 1 HENRY

*NAME_MAP
*1 bottom_left_grid_right_width_0_height_0_subtile_0__pin_O_3_
*2 bottom_right_grid_left_width_0_height_0_subtile_0__pin_inpad_0_
*3 ccff_head
*4 ccff_tail
*5 chanx_left_in[0]
*6 chanx_left_in[1]
*7 chanx_left_in[2]
*8 chanx_left_in[3]
*9 chanx_left_in[4]
*10 chanx_left_in[5]
*11 chanx_left_in[6]
*12 chanx_left_in[7]
*13 chanx_left_in[8]
*14 chanx_left_out[0]
*15 chanx_left_out[1]
*16 chanx_left_out[2]
*17 chanx_left_out[3]
*18 chanx_left_out[4]
*19 chanx_left_out[5]
*20 chanx_left_out[6]
*21 chanx_left_out[7]
*22 chanx_left_out[8]
*23 chany_bottom_in[0]
*24 chany_bottom_in[1]
*25 chany_bottom_in[2]
*26 chany_bottom_in[3]
*27 chany_bottom_in[4]
*28 chany_bottom_in[5]
*29 chany_bottom_in[6]
*30 chany_bottom_in[7]
*31 chany_bottom_in[8]
*32 chany_bottom_out[0]
*33 chany_bottom_out[1]
*34 chany_bottom_out[2]
*35 chany_bottom_out[3]
*36 chany_bottom_out[4]
*37 chany_bottom_out[5]
*38 chany_bottom_out[6]
*39 chany_bottom_out[7]
*40 chany_bottom_out[8]
*41 chany_top_in[0]
*42 chany_top_in[1]
*43 chany_top_in[2]
*44 chany_top_in[3]
*45 chany_top_in[4]
*46 chany_top_in[5]
*47 chany_top_in[6]
*48 chany_top_in[7]
*49 chany_top_in[8]
*50 chany_top_out[0]
*51 chany_top_out[1]
*52 chany_top_out[2]
*53 chany_top_out[3]
*54 chany_top_out[4]
*55 chany_top_out[5]
*56 chany_top_out[6]
*57 chany_top_out[7]
*58 chany_top_out[8]
*59 left_bottom_grid_top_width_0_height_0_subtile_0__pin_O_2_
*60 left_top_grid_bottom_width_0_height_0_subtile_0__pin_O_0_
*61 prog_clk
*62 top_left_grid_right_width_0_height_0_subtile_0__pin_O_3_
*63 top_right_grid_left_width_0_height_0_subtile_0__pin_inpad_0_
*66 _000_
*67 _001_
*68 _002_
*69 _003_
*70 _004_
*71 _005_
*72 _006_
*73 _007_
*74 _008_
*75 _009_
*76 _010_
*77 _011_
*78 _012_
*79 _013_
*80 _014_
*81 _015_
*82 _016_
*83 _017_
*84 _018_
*85 _019_
*86 _020_
*87 _021_
*88 _022_
*89 _023_
*90 _024_
*91 _025_
*92 _026_
*93 _027_
*94 _028_
*95 _029_
*96 _030_
*97 _031_
*98 _032_
*99 _033_
*100 _034_
*101 _035_
*102 _036_
*103 _037_
*104 _038_
*105 _039_
*106 _040_
*107 _041_
*108 _042_
*109 _043_
*110 _044_
*111 _045_
*112 _046_
*113 _047_
*114 _048_
*115 _049_
*116 _050_
*117 _051_
*118 _052_
*119 _053_
*120 _054_
*121 _055_
*122 _056_
*123 _057_
*124 _058_
*125 _059_
*126 _060_
*127 _061_
*128 _062_
*129 _063_
*130 _064_
*131 _065_
*132 _066_
*133 _067_
*134 _068_
*135 _069_
*136 _070_
*137 _071_
*138 _072_
*139 _073_
*140 _074_
*141 _075_
*142 _076_
*143 _077_
*144 _078_
*145 _079_
*146 _080_
*147 _081_
*148 _082_
*149 _083_
*150 _084_
*151 _085_
*152 _086_
*153 _087_
*154 _088_
*155 _089_
*156 _090_
*157 _091_
*158 _092_
*159 _093_
*160 _094_
*161 _095_
*162 _096_
*163 _097_
*164 _098_
*165 _099_
*166 _100_
*167 _101_
*168 _102_
*169 _103_
*170 _104_
*171 _105_
*172 _106_
*173 _107_
*174 _108_
*175 _109_
*176 _110_
*177 _111_
*178 _112_
*179 _113_
*180 _114_
*181 _115_
*182 _116_
*183 _117_
*184 _118_
*185 _119_
*186 _120_
*187 _121_
*188 _122_
*189 _123_
*190 _124_
*191 _125_
*192 _126_
*193 _127_
*194 _128_
*195 _129_
*196 _130_
*197 _131_
*198 _132_
*199 _133_
*200 _134_
*201 _135_
*202 _136_
*203 _137_
*204 _138_
*205 _139_
*206 _140_
*207 _141_
*208 _142_
*209 _143_
*210 _144_
*211 _145_
*212 _146_
*213 _147_
*214 _148_
*215 _149_
*216 _150_
*217 _151_
*218 _152_
*219 _153_
*220 _154_
*221 _155_
*222 _156_
*223 _157_
*224 _158_
*225 _159_
*226 _160_
*227 _161_
*228 clknet_0_prog_clk
*229 clknet_2_0__leaf_prog_clk
*230 clknet_2_1__leaf_prog_clk
*231 clknet_2_2__leaf_prog_clk
*232 clknet_2_3__leaf_prog_clk
*233 mem_bottom_track_1\.DFF_0_\.D
*234 mem_bottom_track_1\.DFF_0_\.Q
*235 mem_bottom_track_1\.DFF_1_\.Q
*236 mem_bottom_track_1\.DFF_2_\.Q
*237 mem_bottom_track_17\.DFF_0_\.D
*238 mem_bottom_track_17\.DFF_0_\.Q
*239 mem_bottom_track_17\.DFF_1_\.Q
*240 mem_bottom_track_17\.DFF_2_\.Q
*241 mem_bottom_track_9\.DFF_0_\.Q
*242 mem_bottom_track_9\.DFF_1_\.Q
*243 mem_left_track_1\.DFF_0_\.Q
*244 mem_left_track_1\.DFF_1_\.Q
*245 mem_left_track_11\.DFF_0_\.D
*246 mem_left_track_11\.DFF_0_\.Q
*247 mem_left_track_11\.DFF_1_\.Q
*248 mem_left_track_13\.DFF_0_\.Q
*249 mem_left_track_13\.DFF_1_\.Q
*250 mem_left_track_15\.DFF_0_\.Q
*251 mem_left_track_15\.DFF_1_\.Q
*252 mem_left_track_17\.DFF_0_\.Q
*253 mem_left_track_3\.DFF_0_\.Q
*254 mem_left_track_3\.DFF_1_\.Q
*255 mem_left_track_5\.DFF_0_\.Q
*256 mem_left_track_5\.DFF_1_\.Q
*257 mem_left_track_7\.DFF_0_\.Q
*258 mem_left_track_7\.DFF_1_\.Q
*259 mem_left_track_9\.DFF_0_\.Q
*260 mem_top_track_0\.DFF_0_\.Q
*261 mem_top_track_0\.DFF_1_\.Q
*262 mem_top_track_0\.DFF_2_\.Q
*263 mem_top_track_16\.DFF_0_\.D
*264 mem_top_track_16\.DFF_0_\.Q
*265 mem_top_track_16\.DFF_1_\.Q
*266 mem_top_track_8\.DFF_0_\.Q
*267 mem_top_track_8\.DFF_1_\.Q
*268 mux_bottom_track_1\.INVTX1_0_\.out
*269 mux_bottom_track_1\.INVTX1_1_\.out
*270 mux_bottom_track_1\.INVTX1_2_\.out
*271 mux_bottom_track_1\.INVTX1_3_\.out
*272 mux_bottom_track_1\.INVTX1_4_\.out
*273 mux_bottom_track_1\.INVTX1_5_\.out
*274 mux_bottom_track_1\.mux_l1_in_0_\.TGATE_0_\.out
*275 mux_bottom_track_1\.mux_l1_in_1_\.TGATE_0_\.out
*276 mux_bottom_track_1\.mux_l1_in_2_\.TGATE_0_\.out
*277 mux_bottom_track_1\.mux_l2_in_0_\.TGATE_0_\.out
*278 mux_bottom_track_1\.mux_l2_in_1_\.TGATE_0_\.out
*279 mux_bottom_track_1\.mux_l3_in_0_\.TGATE_0_\.out
*280 mux_bottom_track_17\.INVTX1_0_\.out
*281 mux_bottom_track_17\.INVTX1_1_\.out
*282 mux_bottom_track_17\.INVTX1_2_\.out
*283 mux_bottom_track_17\.INVTX1_3_\.out
*284 mux_bottom_track_17\.INVTX1_4_\.out
*285 mux_bottom_track_17\.mux_l1_in_0_\.TGATE_0_\.out
*286 mux_bottom_track_17\.mux_l1_in_1_\.TGATE_0_\.out
*287 mux_bottom_track_17\.mux_l2_in_0_\.TGATE_0_\.out
*288 mux_bottom_track_17\.mux_l2_in_1_\.TGATE_0_\.out
*289 mux_bottom_track_17\.mux_l3_in_0_\.TGATE_0_\.out
*290 mux_bottom_track_9\.INVTX1_0_\.out
*291 mux_bottom_track_9\.INVTX1_1_\.out
*292 mux_bottom_track_9\.INVTX1_2_\.out
*293 mux_bottom_track_9\.INVTX1_3_\.out
*294 mux_bottom_track_9\.INVTX1_4_\.out
*295 mux_bottom_track_9\.INVTX1_5_\.out
*296 mux_bottom_track_9\.mux_l1_in_0_\.TGATE_0_\.out
*297 mux_bottom_track_9\.mux_l1_in_1_\.TGATE_0_\.out
*298 mux_bottom_track_9\.mux_l1_in_2_\.TGATE_0_\.out
*299 mux_bottom_track_9\.mux_l2_in_0_\.TGATE_0_\.out
*300 mux_bottom_track_9\.mux_l2_in_1_\.TGATE_0_\.out
*301 mux_bottom_track_9\.mux_l3_in_0_\.TGATE_0_\.out
*302 mux_left_track_1\.INVTX1_1_\.out
*303 mux_left_track_1\.INVTX1_2_\.out
*304 mux_left_track_1\.mux_l1_in_0_\.TGATE_0_\.out
*305 mux_left_track_1\.mux_l1_in_1_\.TGATE_0_\.out
*306 mux_left_track_1\.mux_l2_in_0_\.TGATE_0_\.out
*307 mux_left_track_11\.INVTX1_1_\.out
*308 mux_left_track_11\.mux_l1_in_0_\.TGATE_0_\.out
*309 mux_left_track_11\.mux_l2_in_0_\.TGATE_0_\.out
*310 mux_left_track_13\.INVTX1_1_\.out
*311 mux_left_track_13\.mux_l1_in_0_\.TGATE_0_\.out
*312 mux_left_track_13\.mux_l2_in_0_\.TGATE_0_\.out
*313 mux_left_track_15\.INVTX1_1_\.out
*314 mux_left_track_15\.mux_l1_in_0_\.TGATE_0_\.out
*315 mux_left_track_15\.mux_l2_in_0_\.TGATE_0_\.out
*316 mux_left_track_17\.INVTX1_1_\.out
*317 mux_left_track_17\.mux_l1_in_0_\.TGATE_0_\.out
*318 mux_left_track_17\.mux_l2_in_0_\.TGATE_0_\.out
*319 mux_left_track_3\.INVTX1_0_\.out
*320 mux_left_track_3\.INVTX1_1_\.out
*321 mux_left_track_3\.INVTX1_2_\.out
*322 mux_left_track_3\.mux_l1_in_0_\.TGATE_0_\.out
*323 mux_left_track_3\.mux_l1_in_1_\.TGATE_0_\.out
*324 mux_left_track_3\.mux_l2_in_0_\.TGATE_0_\.out
*325 mux_left_track_5\.INVTX1_0_\.out
*326 mux_left_track_5\.INVTX1_1_\.out
*327 mux_left_track_5\.mux_l1_in_0_\.TGATE_0_\.out
*328 mux_left_track_5\.mux_l2_in_0_\.TGATE_0_\.out
*329 mux_left_track_7\.INVTX1_0_\.out
*330 mux_left_track_7\.INVTX1_1_\.out
*331 mux_left_track_7\.mux_l1_in_0_\.TGATE_0_\.out
*332 mux_left_track_7\.mux_l2_in_0_\.TGATE_0_\.out
*333 mux_left_track_9\.INVTX1_1_\.out
*334 mux_left_track_9\.mux_l1_in_0_\.TGATE_0_\.out
*335 mux_left_track_9\.mux_l2_in_0_\.TGATE_0_\.out
*336 mux_top_track_0\.INVTX1_0_\.out
*337 mux_top_track_0\.mux_l1_in_0_\.TGATE_0_\.out
*338 mux_top_track_0\.mux_l1_in_1_\.TGATE_0_\.out
*339 mux_top_track_0\.mux_l1_in_2_\.TGATE_0_\.out
*340 mux_top_track_0\.mux_l2_in_0_\.TGATE_0_\.out
*341 mux_top_track_0\.mux_l2_in_1_\.TGATE_0_\.out
*342 mux_top_track_0\.mux_l3_in_0_\.TGATE_0_\.out
*343 mux_top_track_16\.mux_l1_in_0_\.TGATE_0_\.out
*344 mux_top_track_16\.mux_l1_in_1_\.TGATE_0_\.out
*345 mux_top_track_16\.mux_l2_in_0_\.TGATE_0_\.out
*346 mux_top_track_16\.mux_l2_in_1_\.TGATE_0_\.out
*347 mux_top_track_16\.mux_l3_in_0_\.TGATE_0_\.out
*348 mux_top_track_8\.INVTX1_0_\.out
*349 mux_top_track_8\.mux_l1_in_0_\.TGATE_0_\.out
*350 mux_top_track_8\.mux_l1_in_1_\.TGATE_0_\.out
*351 mux_top_track_8\.mux_l1_in_2_\.TGATE_0_\.out
*352 mux_top_track_8\.mux_l2_in_0_\.TGATE_0_\.out
*353 mux_top_track_8\.mux_l2_in_1_\.TGATE_0_\.out
*354 mux_top_track_8\.mux_l3_in_0_\.TGATE_0_\.out
*355 net1
*356 net10
*357 net100
*358 net101
*359 net102
*360 net103
*361 net104
*362 net105
*363 net106
*364 net107
*365 net108
*366 net109
*367 net11
*368 net110
*369 net111
*370 net112
*371 net12
*372 net13
*373 net14
*374 net15
*375 net16
*376 net17
*377 net18
*378 net19
*379 net2
*380 net20
*381 net21
*382 net22
*383 net23
*384 net24
*385 net25
*386 net26
*387 net27
*388 net28
*389 net29
*390 net3
*391 net30
*392 net31
*393 net32
*394 net33
*395 net34
*396 net35
*397 net36
*398 net37
*399 net38
*400 net39
*401 net4
*402 net40
*403 net41
*404 net42
*405 net43
*406 net44
*407 net45
*408 net46
*409 net47
*410 net48
*411 net49
*412 net5
*413 net50
*414 net51
*415 net52
*416 net53
*417 net54
*418 net55
*419 net56
*420 net57
*421 net58
*422 net59
*423 net6
*424 net60
*425 net61
*426 net62
*427 net63
*428 net64
*429 net65
*430 net66
*431 net67
*432 net68
*433 net69
*434 net7
*435 net70
*436 net71
*437 net72
*438 net73
*439 net74
*440 net75
*441 net76
*442 net77
*443 net78
*444 net79
*445 net8
*446 net80
*447 net81
*448 net82
*449 net83
*450 net84
*451 net85
*452 net86
*453 net87
*454 net88
*455 net89
*456 net9
*457 net90
*458 net91
*459 net92
*460 net93
*461 net94
*462 net95
*463 net96
*464 net97
*465 net98
*466 net99
*467 FILLER_0_0_11
*468 FILLER_0_0_111
*469 FILLER_0_0_116
*470 FILLER_0_0_127
*471 FILLER_0_0_135
*472 FILLER_0_0_144
*473 FILLER_0_0_15
*474 FILLER_0_0_27
*475 FILLER_0_0_3
*476 FILLER_0_0_32
*477 FILLER_0_0_43
*478 FILLER_0_0_60
*479 FILLER_0_0_71
*480 FILLER_0_0_83
*481 FILLER_0_0_88
*482 FILLER_0_0_99
*483 FILLER_0_10_101
*484 FILLER_0_10_114
*485 FILLER_0_10_12
*486 FILLER_0_10_138
*487 FILLER_0_10_144
*488 FILLER_0_10_27
*489 FILLER_0_10_37
*490 FILLER_0_10_57
*491 FILLER_0_10_69
*492 FILLER_0_10_88
*493 FILLER_0_11_111
*494 FILLER_0_11_138
*495 FILLER_0_11_24
*496 FILLER_0_11_3
*497 FILLER_0_11_55
*498 FILLER_0_11_57
*499 FILLER_0_11_7
*500 FILLER_0_11_75
*501 FILLER_0_12_111
*502 FILLER_0_12_127
*503 FILLER_0_12_135
*504 FILLER_0_12_141
*505 FILLER_0_12_65
*506 FILLER_0_12_74
*507 FILLER_0_12_85
*508 FILLER_0_12_9
*509 FILLER_0_13_111
*510 FILLER_0_13_124
*511 FILLER_0_13_136
*512 FILLER_0_13_144
*513 FILLER_0_13_20
*514 FILLER_0_13_3
*515 FILLER_0_13_46
*516 FILLER_0_13_65
*517 FILLER_0_13_8
*518 FILLER_0_13_98
*519 FILLER_0_14_121
*520 FILLER_0_14_133
*521 FILLER_0_14_141
*522 FILLER_0_14_145
*523 FILLER_0_14_26
*524 FILLER_0_14_9
*525 FILLER_0_15_102
*526 FILLER_0_15_108
*527 FILLER_0_15_11
*528 FILLER_0_15_124
*529 FILLER_0_15_136
*530 FILLER_0_15_23
*531 FILLER_0_15_3
*532 FILLER_0_15_35
*533 FILLER_0_16_124
*534 FILLER_0_16_136
*535 FILLER_0_16_141
*536 FILLER_0_16_145
*537 FILLER_0_16_23
*538 FILLER_0_16_27
*539 FILLER_0_16_29
*540 FILLER_0_16_3
*541 FILLER_0_16_41
*542 FILLER_0_16_57
*543 FILLER_0_16_69
*544 FILLER_0_16_8
*545 FILLER_0_16_81
*546 FILLER_0_16_85
*547 FILLER_0_17_108
*548 FILLER_0_17_116
*549 FILLER_0_17_128
*550 FILLER_0_17_136
*551 FILLER_0_17_45
*552 FILLER_0_17_53
*553 FILLER_0_17_57
*554 FILLER_0_17_67
*555 FILLER_0_17_80
*556 FILLER_0_17_92
*557 FILLER_0_17_99
*558 FILLER_0_18_121
*559 FILLER_0_18_133
*560 FILLER_0_18_139
*561 FILLER_0_18_141
*562 FILLER_0_18_37
*563 FILLER_0_18_6
*564 FILLER_0_18_77
*565 FILLER_0_19_11
*566 FILLER_0_19_124
*567 FILLER_0_19_136
*568 FILLER_0_19_144
*569 FILLER_0_19_22
*570 FILLER_0_19_26
*571 FILLER_0_19_3
*572 FILLER_0_19_46
*573 FILLER_0_19_60
*574 FILLER_0_19_97
*575 FILLER_0_1_103
*576 FILLER_0_1_107
*577 FILLER_0_1_130
*578 FILLER_0_1_142
*579 FILLER_0_1_17
*580 FILLER_0_1_25
*581 FILLER_0_1_3
*582 FILLER_0_1_57
*583 FILLER_0_1_62
*584 FILLER_0_1_74
*585 FILLER_0_1_78
*586 FILLER_0_1_90
*587 FILLER_0_1_97
*588 FILLER_0_20_107
*589 FILLER_0_20_129
*590 FILLER_0_20_141
*591 FILLER_0_20_27
*592 FILLER_0_20_29
*593 FILLER_0_20_33
*594 FILLER_0_20_42
*595 FILLER_0_20_74
*596 FILLER_0_20_94
*597 FILLER_0_21_132
*598 FILLER_0_21_136
*599 FILLER_0_21_24
*600 FILLER_0_21_3
*601 FILLER_0_21_53
*602 FILLER_0_21_57
*603 FILLER_0_21_83
*604 FILLER_0_21_95
*605 FILLER_0_22_107
*606 FILLER_0_22_144
*607 FILLER_0_22_21
*608 FILLER_0_22_26
*609 FILLER_0_22_29
*610 FILLER_0_22_3
*611 FILLER_0_22_82
*612 FILLER_0_22_85
*613 FILLER_0_22_89
*614 FILLER_0_23_111
*615 FILLER_0_23_133
*616 FILLER_0_23_141
*617 FILLER_0_23_17
*618 FILLER_0_24_112
*619 FILLER_0_24_124
*620 FILLER_0_24_136
*621 FILLER_0_24_141
*622 FILLER_0_24_29
*623 FILLER_0_24_44
*624 FILLER_0_24_71
*625 FILLER_0_24_99
*626 FILLER_0_25_101
*627 FILLER_0_25_11
*628 FILLER_0_25_111
*629 FILLER_0_25_113
*630 FILLER_0_25_125
*631 FILLER_0_25_137
*632 FILLER_0_25_144
*633 FILLER_0_25_20
*634 FILLER_0_25_3
*635 FILLER_0_25_44
*636 FILLER_0_25_57
*637 FILLER_0_25_79
*638 FILLER_0_25_90
*639 FILLER_0_26_102
*640 FILLER_0_26_106
*641 FILLER_0_26_11
*642 FILLER_0_26_117
*643 FILLER_0_26_125
*644 FILLER_0_26_131
*645 FILLER_0_26_136
*646 FILLER_0_26_141
*647 FILLER_0_26_17
*648 FILLER_0_26_27
*649 FILLER_0_26_3
*650 FILLER_0_26_37
*651 FILLER_0_26_50
*652 FILLER_0_26_60
*653 FILLER_0_26_75
*654 FILLER_0_26_83
*655 FILLER_0_26_85
*656 FILLER_0_26_89
*657 FILLER_0_26_93
*658 FILLER_0_26_98
*659 FILLER_0_27_108
*660 FILLER_0_27_113
*661 FILLER_0_27_119
*662 FILLER_0_27_123
*663 FILLER_0_27_129
*664 FILLER_0_27_133
*665 FILLER_0_27_141
*666 FILLER_0_27_18
*667 FILLER_0_27_26
*668 FILLER_0_27_29
*669 FILLER_0_27_33
*670 FILLER_0_27_37
*671 FILLER_0_27_48
*672 FILLER_0_27_52
*673 FILLER_0_27_57
*674 FILLER_0_27_63
*675 FILLER_0_27_78
*676 FILLER_0_27_85
*677 FILLER_0_27_89
*678 FILLER_0_27_93
*679 FILLER_0_2_108
*680 FILLER_0_2_116
*681 FILLER_0_2_121
*682 FILLER_0_2_133
*683 FILLER_0_2_139
*684 FILLER_0_2_141
*685 FILLER_0_2_29
*686 FILLER_0_2_39
*687 FILLER_0_2_57
*688 FILLER_0_2_73
*689 FILLER_0_2_82
*690 FILLER_0_2_96
*691 FILLER_0_3_104
*692 FILLER_0_3_113
*693 FILLER_0_3_125
*694 FILLER_0_3_137
*695 FILLER_0_3_141
*696 FILLER_0_3_28
*697 FILLER_0_3_40
*698 FILLER_0_3_44
*699 FILLER_0_3_54
*700 FILLER_0_3_9
*701 FILLER_0_3_95
*702 FILLER_0_4_109
*703 FILLER_0_4_121
*704 FILLER_0_4_133
*705 FILLER_0_4_139
*706 FILLER_0_4_144
*707 FILLER_0_4_23
*708 FILLER_0_4_3
*709 FILLER_0_4_37
*710 FILLER_0_4_65
*711 FILLER_0_4_85
*712 FILLER_0_5_111
*713 FILLER_0_5_113
*714 FILLER_0_5_125
*715 FILLER_0_5_137
*716 FILLER_0_5_141
*717 FILLER_0_5_66
*718 FILLER_0_5_70
*719 FILLER_0_5_9
*720 FILLER_0_6_102
*721 FILLER_0_6_114
*722 FILLER_0_6_12
*723 FILLER_0_6_126
*724 FILLER_0_6_144
*725 FILLER_0_6_23
*726 FILLER_0_6_27
*727 FILLER_0_6_29
*728 FILLER_0_6_39
*729 FILLER_0_6_59
*730 FILLER_0_6_63
*731 FILLER_0_6_71
*732 FILLER_0_6_82
*733 FILLER_0_7_105
*734 FILLER_0_7_111
*735 FILLER_0_7_113
*736 FILLER_0_7_125
*737 FILLER_0_7_137
*738 FILLER_0_7_145
*739 FILLER_0_7_18
*740 FILLER_0_7_88
*741 FILLER_0_8_119
*742 FILLER_0_8_133
*743 FILLER_0_8_139
*744 FILLER_0_8_141
*745 FILLER_0_8_27
*746 FILLER_0_8_29
*747 FILLER_0_8_3
*748 FILLER_0_8_56
*749 FILLER_0_8_71
*750 FILLER_0_8_83
*751 FILLER_0_8_85
*752 FILLER_0_8_93
*753 FILLER_0_9_111
*754 FILLER_0_9_129
*755 FILLER_0_9_137
*756 FILLER_0_9_24
*757 FILLER_0_9_37
*758 FILLER_0_9_88
*759 FILLER_0_9_9
*760 PHY_0
*761 PHY_1
*762 PHY_10
*763 PHY_11
*764 PHY_12
*765 PHY_13
*766 PHY_14
*767 PHY_15
*768 PHY_16
*769 PHY_17
*770 PHY_18
*771 PHY_19
*772 PHY_2
*773 PHY_20
*774 PHY_21
*775 PHY_22
*776 PHY_23
*777 PHY_24
*778 PHY_25
*779 PHY_26
*780 PHY_27
*781 PHY_28
*782 PHY_29
*783 PHY_3
*784 PHY_30
*785 PHY_31
*786 PHY_32
*787 PHY_33
*788 PHY_34
*789 PHY_35
*790 PHY_36
*791 PHY_37
*792 PHY_38
*793 PHY_39
*794 PHY_4
*795 PHY_40
*796 PHY_41
*797 PHY_42
*798 PHY_43
*799 PHY_44
*800 PHY_45
*801 PHY_46
*802 PHY_47
*803 PHY_48
*804 PHY_49
*805 PHY_5
*806 PHY_50
*807 PHY_51
*808 PHY_52
*809 PHY_53
*810 PHY_54
*811 PHY_55
*812 PHY_6
*813 PHY_7
*814 PHY_8
*815 PHY_9
*816 TAP_100
*817 TAP_101
*818 TAP_102
*819 TAP_103
*820 TAP_104
*821 TAP_105
*822 TAP_106
*823 TAP_107
*824 TAP_108
*825 TAP_109
*826 TAP_110
*827 TAP_111
*828 TAP_112
*829 TAP_113
*830 TAP_114
*831 TAP_115
*832 TAP_116
*833 TAP_117
*834 TAP_118
*835 TAP_119
*836 TAP_120
*837 TAP_121
*838 TAP_122
*839 TAP_123
*840 TAP_124
*841 TAP_125
*842 TAP_126
*843 TAP_127
*844 TAP_128
*845 TAP_129
*846 TAP_130
*847 TAP_56
*848 TAP_57
*849 TAP_58
*850 TAP_59
*851 TAP_60
*852 TAP_61
*853 TAP_62
*854 TAP_63
*855 TAP_64
*856 TAP_65
*857 TAP_66
*858 TAP_67
*859 TAP_68
*860 TAP_69
*861 TAP_70
*862 TAP_71
*863 TAP_72
*864 TAP_73
*865 TAP_74
*866 TAP_75
*867 TAP_76
*868 TAP_77
*869 TAP_78
*870 TAP_79
*871 TAP_80
*872 TAP_81
*873 TAP_82
*874 TAP_83
*875 TAP_84
*876 TAP_85
*877 TAP_86
*878 TAP_87
*879 TAP_88
*880 TAP_89
*881 TAP_90
*882 TAP_91
*883 TAP_92
*884 TAP_93
*885 TAP_94
*886 TAP_95
*887 TAP_96
*888 TAP_97
*889 TAP_98
*890 TAP_99
*891 _177_
*892 _178_
*893 _179_
*894 _180_
*895 _181_
*896 _182_
*897 _183_
*898 _184_
*899 _185_
*900 _186_
*901 _187_
*902 _188_
*903 _189_
*904 _190_
*905 _191_
*906 _192_
*907 _193_
*908 _194_
*909 _195_
*910 _196_
*911 _197_
*912 _198_
*913 _199_
*914 _200_
*915 _201_
*916 _202_
*917 _203_
*918 _204_
*919 _205_
*920 _206_
*921 _207_
*922 _208_
*923 _209_
*924 _210_
*925 _211_
*926 _212_
*927 _213_
*928 _214_
*929 _215_
*930 _216_
*931 _217_
*932 _218_
*933 _219_
*934 _220_
*935 _221_
*936 _222_
*937 _223_
*938 _224_
*939 _225_
*940 _226_
*941 _227_
*942 _228_
*943 _229_
*944 _230_
*945 _231_
*946 _232_
*947 _233_
*948 _234_
*949 _235_
*950 _236_
*951 _237_
*952 _238_
*953 _239_
*954 _240_
*955 _241_
*956 _242_
*957 _243_
*958 _244_
*959 _245_
*960 _246_
*961 _247_
*962 _248_
*963 _249_
*964 _250_
*965 _251_
*966 _252_
*967 _253_
*968 _254_
*969 _255_
*970 _256_
*971 _257_
*972 _258_
*973 _259_
*974 _260_
*975 _261_
*976 _262_
*977 _263_
*978 _264_
*979 _265_
*980 _266_
*981 _267_
*982 _268_
*983 _269_
*984 _270_
*985 _271_
*986 _272_
*987 _273_
*988 _274_
*989 _275_
*990 _276_
*991 _277_
*992 _278_
*993 _279_
*994 _280_
*995 _281_
*996 _282_
*997 _283_
*998 _284_
*999 _285_
*1000 _286_
*1001 _287_
*1002 _288_
*1003 _289_
*1004 _290_
*1005 _291_
*1006 _292_
*1007 _293_
*1008 _294_
*1009 _295_
*1010 _296_
*1011 _297_
*1012 _298_
*1013 _299_
*1014 _300_
*1015 _301_
*1016 _302_
*1017 _303_
*1018 _304_
*1019 _305_
*1020 _306_
*1021 _307_
*1022 _308_
*1023 _309_
*1024 _310_
*1025 _311_
*1026 _312_
*1027 _313_
*1028 _314_
*1029 _315_
*1030 _316_
*1031 _317_
*1032 _318_
*1033 _319_
*1034 _320_
*1035 _321_
*1036 _322_
*1037 _323_
*1038 _324_
*1039 _325_
*1040 _326_
*1041 _327_
*1042 _328_
*1043 _329_
*1044 _330_
*1045 _331_
*1046 _332_
*1047 _333_
*1048 _334_
*1049 _335_
*1050 _336_
*1051 _337_
*1052 _338_
*1053 _339_
*1054 _340_
*1055 _341_
*1056 _342_
*1057 _343_
*1058 _344_
*1059 _345_
*1060 _346_
*1061 _347_
*1062 _348_
*1063 _349_
*1064 _350_
*1065 _351_
*1066 _352_
*1067 _353_
*1068 _354_
*1069 _355_
*1070 _356_
*1071 _357_
*1072 _358_
*1073 _359_
*1074 _360_
*1075 _361_
*1076 _362_
*1077 _363_
*1078 _364_
*1079 _365_
*1080 _366_
*1081 _367_
*1082 _368_
*1083 _369_
*1084 _370_
*1085 _371_
*1086 _372_
*1087 _373_
*1088 _374_
*1089 _375_
*1090 _376_
*1091 _377_
*1092 _378_
*1093 _379_
*1094 _380_
*1095 _381_
*1096 _382_
*1097 _383_
*1098 _384_
*1099 _385_
*1100 _386_
*1101 _387_
*1102 _388_
*1103 _389_
*1104 _390_
*1105 _391_
*1106 _392_
*1107 _393_
*1108 _394_
*1109 _395_
*1110 _396_
*1111 _397_
*1112 _398_
*1113 _399_
*1114 _400_
*1115 _401_
*1116 _402_
*1117 _403_
*1118 _404_
*1119 _405_
*1120 _406_
*1121 _407_
*1122 _408_
*1123 _409_
*1124 _410_
*1125 _411_
*1126 _412_
*1127 _413_
*1128 _414_
*1129 _415_
*1130 _416_
*1131 _417_
*1132 _418_
*1133 _419_
*1134 _420_
*1135 _421_
*1136 _422_
*1137 _438_
*1138 _439_
*1139 _440_
*1140 _441_
*1141 _442_
*1142 _443_
*1143 _444_
*1144 _445_
*1145 _446_
*1146 _447_
*1147 _448_
*1148 _449_
*1149 _450_
*1150 _451_
*1151 _452_
*1152 _453_
*1153 _454_
*1154 _455_
*1155 _455__63
*1156 _456_
*1157 _457_
*1158 _458_
*1159 _459_
*1160 _460_
*1161 _461_
*1162 _462_
*1163 _463_
*1164 _463__64
*1165 _464_
*1166 _465_
*1167 _466_
*1168 _467_
*1169 _468_
*1170 _469_
*1171 _470_
*1172 _471_
*1173 _472_
*1174 _473_
*1175 _474_
*1176 _475_
*1177 _475__65
*1178 _476_
*1179 _477_
*1180 _478_
*1181 _479_
*1182 _480_
*1183 _481_
*1184 _482_
*1185 _483_
*1186 _484_
*1187 _485_
*1188 _486_
*1189 _487_
*1190 _487__66
*1191 _488_
*1192 _489_
*1193 _490_
*1194 _491_
*1195 _492_
*1196 _493_
*1197 _494_
*1198 _495_
*1199 _496_
*1200 _497_
*1201 _498_
*1202 _499_
*1203 _499__67
*1204 _500_
*1205 _501_
*1206 _502_
*1207 _503_
*1208 _504_
*1209 _505_
*1210 _506_
*1211 _507_
*1212 _508_
*1213 _509_
*1214 _509__68
*1215 _510_
*1216 _511_
*1217 _512_
*1218 _513_
*1219 _514_
*1220 _515_
*1221 _516_
*1222 _517_
*1223 _518_
*1224 _519_
*1225 _519__69
*1226 _520_
*1227 _521_
*1228 _522_
*1229 _523_
*1230 _524_
*1231 _525_
*1232 _525__70
*1233 _526_
*1234 _527_
*1235 _528_
*1236 _529_
*1237 _530_
*1238 _530__71
*1239 _531_
*1240 _532_
*1241 _533_
*1242 _534_
*1243 _534__72
*1244 _535_
*1245 _536_
*1246 _537_
*1247 _538_
*1248 _538__73
*1249 _539_
*1250 _540_
*1251 _541_
*1252 _542_
*1253 _542__74
*1254 _543_
*1255 _544_
*1256 _545_
*1257 _546_
*1258 _546__75
*1259 _547_
*1260 _548_
*1261 _549_
*1262 _550_
*1263 _550__76
*1264 _551_
*1265 _552_
*1266 _553_
*1267 _554_
*1268 _554__77
*1269 _555_
*1270 _556_
*1271 _557_
*1272 clkbuf_0_prog_clk
*1273 clkbuf_2_0__f_prog_clk
*1274 clkbuf_2_1__f_prog_clk
*1275 clkbuf_2_2__f_prog_clk
*1276 clkbuf_2_3__f_prog_clk
*1277 hold1
*1278 hold10
*1279 hold11
*1280 hold12
*1281 hold13
*1282 hold14
*1283 hold15
*1284 hold16
*1285 hold17
*1286 hold18
*1287 hold19
*1288 hold2
*1289 hold20
*1290 hold21
*1291 hold22
*1292 hold23
*1293 hold24
*1294 hold25
*1295 hold26
*1296 hold27
*1297 hold28
*1298 hold29
*1299 hold3
*1300 hold30
*1301 hold31
*1302 hold32
*1303 hold33
*1304 hold34
*1305 hold35
*1306 hold4
*1307 hold5
*1308 hold6
*1309 hold7
*1310 hold8
*1311 hold9
*1312 input1
*1313 input10
*1314 input11
*1315 input12
*1316 input13
*1317 input14
*1318 input15
*1319 input16
*1320 input17
*1321 input18
*1322 input19
*1323 input2
*1324 input20
*1325 input21
*1326 input22
*1327 input23
*1328 input24
*1329 input25
*1330 input26
*1331 input27
*1332 input28
*1333 input29
*1334 input3
*1335 input30
*1336 input31
*1337 input32
*1338 input33
*1339 input34
*1340 input4
*1341 input5
*1342 input6
*1343 input7
*1344 input8
*1345 input9
*1346 output35
*1347 output36
*1348 output37
*1349 output38
*1350 output39
*1351 output40
*1352 output41
*1353 output42
*1354 output43
*1355 output44
*1356 output45
*1357 output46
*1358 output47
*1359 output48
*1360 output49
*1361 output50
*1362 output51
*1363 output52
*1364 output53
*1365 output54
*1366 output55
*1367 output56
*1368 output57
*1369 output58
*1370 output59
*1371 output60
*1372 output61
*1373 output62

*PORTS
bottom_left_grid_right_width_0_height_0_subtile_0__pin_O_3_ I
bottom_right_grid_left_width_0_height_0_subtile_0__pin_inpad_0_ I
ccff_head I
ccff_tail O
chanx_left_in[0] I
chanx_left_in[1] I
chanx_left_in[2] I
chanx_left_in[3] I
chanx_left_in[4] I
chanx_left_in[5] I
chanx_left_in[6] I
chanx_left_in[7] I
chanx_left_in[8] I
chanx_left_out[0] O
chanx_left_out[1] O
chanx_left_out[2] O
chanx_left_out[3] O
chanx_left_out[4] O
chanx_left_out[5] O
chanx_left_out[6] O
chanx_left_out[7] O
chanx_left_out[8] O
chany_bottom_in[0] I
chany_bottom_in[1] I
chany_bottom_in[2] I
chany_bottom_in[3] I
chany_bottom_in[4] I
chany_bottom_in[5] I
chany_bottom_in[6] I
chany_bottom_in[7] I
chany_bottom_in[8] I
chany_bottom_out[0] O
chany_bottom_out[1] O
chany_bottom_out[2] O
chany_bottom_out[3] O
chany_bottom_out[4] O
chany_bottom_out[5] O
chany_bottom_out[6] O
chany_bottom_out[7] O
chany_bottom_out[8] O
chany_top_in[0] I
chany_top_in[1] I
chany_top_in[2] I
chany_top_in[3] I
chany_top_in[4] I
chany_top_in[5] I
chany_top_in[6] I
chany_top_in[7] I
chany_top_in[8] I
chany_top_out[0] O
chany_top_out[1] O
chany_top_out[2] O
chany_top_out[3] O
chany_top_out[4] O
chany_top_out[5] O
chany_top_out[6] O
chany_top_out[7] O
chany_top_out[8] O
left_bottom_grid_top_width_0_height_0_subtile_0__pin_O_2_ I
left_top_grid_bottom_width_0_height_0_subtile_0__pin_O_0_ I
prog_clk I
top_left_grid_right_width_0_height_0_subtile_0__pin_O_3_ I
top_right_grid_left_width_0_height_0_subtile_0__pin_inpad_0_ I

*D_NET *1 0.00116758
*CONN
*P bottom_left_grid_right_width_0_height_0_subtile_0__pin_O_3_ I
*I *1312:A I *D sky130_fd_sc_hd__buf_1
*CAP
1 bottom_left_grid_right_width_0_height_0_subtile_0__pin_O_3_ 0.000512361
2 *1312:A 0.000512361
3 *1312:A *1334:A 0.000142856
*RES
1 bottom_left_grid_right_width_0_height_0_subtile_0__pin_O_3_ *1312:A 24.1393 
*END

*D_NET *2 0.00136483
*CONN
*P bottom_right_grid_left_width_0_height_0_subtile_0__pin_inpad_0_ I
*I *1323:A I *D sky130_fd_sc_hd__buf_1
*CAP
1 bottom_right_grid_left_width_0_height_0_subtile_0__pin_inpad_0_ 0.000682417
2 *1323:A 0.000682417
3 *1323:A *1066:A 0
*RES
1 bottom_right_grid_left_width_0_height_0_subtile_0__pin_inpad_0_ *1323:A 26.6214 
*END

*D_NET *3 0.00132777
*CONN
*P ccff_head I
*I *1334:A I *D sky130_fd_sc_hd__clkbuf_1
*CAP
1 ccff_head 0.000573107
2 *1334:A 0.000573107
3 *1334:A ccff_tail 3.8703e-05
4 *1312:A *1334:A 0.000142856
*RES
1 ccff_head *1334:A 22.5192 
*END

*D_NET *4 0.000968172
*CONN
*P ccff_tail O
*I *1346:X O *D sky130_fd_sc_hd__buf_2
*CAP
1 ccff_tail 0.000464734
2 *1346:X 0.000464734
3 ccff_tail chany_top_out[0] 0
4 *1334:A ccff_tail 3.8703e-05
*RES
1 *1346:X ccff_tail 19.4813 
*END

*D_NET *5 0.00109401
*CONN
*P chanx_left_in[0] I
*I *1340:A I *D sky130_fd_sc_hd__clkbuf_1
*CAP
1 chanx_left_in[0] 0.000497492
2 *1340:A 0.000497492
3 *1340:A chanx_left_out[8] 0
4 *1340:A *1073:A 6.09963e-05
5 *1340:A *1341:A 0
6 *1340:A *282:8 3.80277e-05
7 *1340:A *397:14 0
*RES
1 chanx_left_in[0] *1340:A 24.1203 
*END

*D_NET *6 0.00113199
*CONN
*P chanx_left_in[1] I
*I *1341:A I *D sky130_fd_sc_hd__clkbuf_1
*CAP
1 chanx_left_in[1] 0.000412101
2 *1341:A 0.000412101
3 *1341:A *1048:A 1.04232e-05
4 *1341:A *1049:A 9.7049e-06
5 *1341:A *1065:A 0.000104956
6 *1341:A *1342:A 0
7 *1341:A *293:22 0.0001827
8 *1341:A *397:14 0
9 *1340:A *1341:A 0
*RES
1 chanx_left_in[1] *1341:A 24.2447 
*END

*D_NET *7 0.000531716
*CONN
*P chanx_left_in[2] I
*I *1342:A I *D sky130_fd_sc_hd__clkbuf_1
*CAP
1 chanx_left_in[2] 0.000265858
2 *1342:A 0.000265858
3 *1342:A *1343:A 0
4 *1342:A *397:14 0
5 *1341:A *1342:A 0
*RES
1 chanx_left_in[2] *1342:A 20.5482 
*END

*D_NET *8 0.000911938
*CONN
*P chanx_left_in[3] I
*I *1343:A I *D sky130_fd_sc_hd__clkbuf_1
*CAP
1 chanx_left_in[3] 0.000342206
2 *1343:A 0.000342206
3 *1343:A *1344:A 0
4 *1343:A *244:14 0.000227526
5 *1342:A *1343:A 0
*RES
1 chanx_left_in[3] *1343:A 22.4232 
*END

*D_NET *9 0.00138532
*CONN
*P chanx_left_in[4] I
*I *1344:A I *D sky130_fd_sc_hd__clkbuf_1
*CAP
1 chanx_left_in[4] 0.000578304
2 *1344:A 0.000578304
3 *1344:A *1057:A 0.000184864
4 *1344:A *1064:A 4.38511e-05
5 *1344:A *1313:A 0
6 *1344:A *1345:A 0
7 *1344:A *321:18 0
8 *1343:A *1344:A 0
*RES
1 chanx_left_in[4] *1344:A 26.0157 
*END

*D_NET *10 0.00151941
*CONN
*P chanx_left_in[5] I
*I *1345:A I *D sky130_fd_sc_hd__clkbuf_1
*CAP
1 chanx_left_in[5] 0.000550474
2 *1345:A 0.000550474
3 *1345:A *947:A 0
4 *1345:A *1079:A 4.1331e-06
5 *1345:A *1224:A 0
6 *1345:A *1228:A 6.42338e-05
7 *1345:A *1313:A 1.60489e-05
8 *1345:A *305:8 3.15282e-05
9 *1345:A *321:18 0.000302516
10 *1344:A *1345:A 0
*RES
1 chanx_left_in[5] *1345:A 22.3266 
*END

*D_NET *11 0.00133852
*CONN
*P chanx_left_in[6] I
*I *1313:A I *D sky130_fd_sc_hd__clkbuf_1
*CAP
1 chanx_left_in[6] 0.000618204
2 *1313:A 0.000618204
3 *1313:A *1076:A 6.29133e-05
4 *1313:A *1314:A 2.3148e-05
5 *1313:A *284:14 0
6 *1313:A *321:18 0
7 *1344:A *1313:A 0
8 *1345:A *1313:A 1.60489e-05
*RES
1 chanx_left_in[6] *1313:A 26.5489 
*END

*D_NET *12 0.000992021
*CONN
*P chanx_left_in[7] I
*I *1314:A I *D sky130_fd_sc_hd__clkbuf_1
*CAP
1 chanx_left_in[7] 0.000450036
2 *1314:A 0.000450036
3 *1314:A *1083:A 4.22908e-05
4 *1314:A *1315:A 0
5 *1314:A *321:18 0
6 *1314:A *371:18 2.65105e-05
7 *1313:A *1314:A 2.3148e-05
*RES
1 chanx_left_in[7] *1314:A 23.9411 
*END

*D_NET *13 0.000662235
*CONN
*P chanx_left_in[8] I
*I *1315:A I *D sky130_fd_sc_hd__buf_1
*CAP
1 chanx_left_in[8] 0.000236825
2 *1315:A 0.000236825
3 *1315:A *1326:A 0.000188586
4 *1315:A *1336:A 0
5 *1314:A *1315:A 0
*RES
1 chanx_left_in[8] *1315:A 20.8518 
*END

*D_NET *14 0.00064576
*CONN
*P chanx_left_out[0] O
*I *1347:X O *D sky130_fd_sc_hd__clkbuf_4
*CAP
1 chanx_left_out[0] 0.00032288
2 *1347:X 0.00032288
3 chanx_left_out[0] chanx_left_out[1] 0
4 chanx_left_out[0] *1349:A 0
5 chanx_left_out[0] *61:15 0
*RES
1 *1347:X chanx_left_out[0] 21.4589 
*END

*D_NET *15 0.000634974
*CONN
*P chanx_left_out[1] O
*I *1348:X O *D sky130_fd_sc_hd__clkbuf_4
*CAP
1 chanx_left_out[1] 0.000317487
2 *1348:X 0.000317487
3 chanx_left_out[1] chanx_left_out[2] 0
4 chanx_left_out[0] chanx_left_out[1] 0
*RES
1 *1348:X chanx_left_out[1] 20.3518 
*END

*D_NET *16 0.000747753
*CONN
*P chanx_left_out[2] O
*I *1349:X O *D sky130_fd_sc_hd__clkbuf_4
*CAP
1 chanx_left_out[2] 0.000373876
2 *1349:X 0.000373876