*SPEF "ieee 1481-1999"
*DESIGN "sb_8__0_"
*DATE "11:11:11 Fri 11 11, 1111"
*VENDOR "OpenRCX"
*PROGRAM "Parallel Extraction"
*VERSION "1.0"
*DESIGN_FLOW "NAME_SCOPE LOCAL" "PIN_CAP NONE"
*DIVIDER /
*DELIMITER :
*BUS_DELIMITER []
*T_UNIT 1 NS
*C_UNIT 1 PF
*R_UNIT 1 OHM
*L_UNIT 1 HENRY

*NAME_MAP
*1 ccff_head
*2 ccff_tail
*3 chanx_left_in[0]
*4 chanx_left_in[1]
*5 chanx_left_in[2]
*6 chanx_left_in[3]
*7 chanx_left_in[4]
*8 chanx_left_in[5]
*9 chanx_left_in[6]
*10 chanx_left_in[7]
*11 chanx_left_in[8]
*12 chanx_left_out[0]
*13 chanx_left_out[1]
*14 chanx_left_out[2]
*15 chanx_left_out[3]
*16 chanx_left_out[4]
*17 chanx_left_out[5]
*18 chanx_left_out[6]
*19 chanx_left_out[7]
*20 chanx_left_out[8]
*21 chany_top_in[0]
*22 chany_top_in[1]
*23 chany_top_in[2]
*24 chany_top_in[3]
*25 chany_top_in[4]
*26 chany_top_in[5]
*27 chany_top_in[6]
*28 chany_top_in[7]
*29 chany_top_in[8]
*30 chany_top_out[0]
*31 chany_top_out[1]
*32 chany_top_out[2]
*33 chany_top_out[3]
*34 chany_top_out[4]
*35 chany_top_out[5]
*36 chany_top_out[6]
*37 chany_top_out[7]
*38 chany_top_out[8]
*39 left_bottom_grid_top_width_0_height_0_subtile_0__pin_inpad_0_
*40 left_top_grid_bottom_width_0_height_0_subtile_0__pin_O_0_
*41 prog_clk
*42 top_left_grid_right_width_0_height_0_subtile_0__pin_O_3_
*43 top_right_grid_left_width_0_height_0_subtile_0__pin_inpad_0_
*46 _000_
*47 _001_
*48 _002_
*49 _003_
*50 _004_
*51 _005_
*52 _006_
*53 _007_
*54 _008_
*55 _009_
*56 _010_
*57 _011_
*58 _012_
*59 _013_
*60 _014_
*61 _015_
*62 _016_
*63 _017_
*64 _018_
*65 _019_
*66 _020_
*67 _021_
*68 _022_
*69 _023_
*70 clknet_0_prog_clk
*71 clknet_1_0__leaf_prog_clk
*72 clknet_1_1__leaf_prog_clk
*73 mem_left_track_1\.DFF_0_\.D
*74 mem_left_track_1\.DFF_0_\.Q
*75 mem_left_track_1\.DFF_1_\.Q
*76 mem_left_track_3\.DFF_0_\.Q
*77 mem_top_track_0\.DFF_0_\.Q
*78 mem_top_track_0\.DFF_1_\.Q
*79 mem_top_track_2\.DFF_0_\.Q
*80 mux_left_track_1\.INVTX1_0_\.out
*81 mux_left_track_1\.INVTX1_1_\.out
*82 mux_left_track_1\.mux_l1_in_0_\.TGATE_0_\.out
*83 mux_left_track_1\.mux_l2_in_0_\.TGATE_0_\.out
*84 mux_left_track_3\.INVTX1_0_\.out
*85 mux_left_track_3\.INVTX1_1_\.out
*86 mux_left_track_3\.mux_l1_in_0_\.TGATE_0_\.out
*87 mux_left_track_3\.mux_l2_in_0_\.TGATE_0_\.out
*88 mux_top_track_0\.INVTX1_0_\.out
*89 mux_top_track_0\.INVTX1_1_\.out
*90 mux_top_track_0\.mux_l1_in_0_\.TGATE_0_\.out
*91 mux_top_track_0\.mux_l2_in_0_\.TGATE_0_\.out
*92 mux_top_track_2\.INVTX1_0_\.out
*93 mux_top_track_2\.INVTX1_1_\.out
*94 mux_top_track_2\.mux_l1_in_0_\.TGATE_0_\.out
*95 mux_top_track_2\.mux_l2_in_0_\.TGATE_0_\.out
*96 net1
*97 net10
*98 net11
*99 net12
*100 net13
*101 net14
*102 net15
*103 net16
*104 net17
*105 net18
*106 net19
*107 net2
*108 net20
*109 net21
*110 net22
*111 net23
*112 net24
*113 net25
*114 net26
*115 net27
*116 net28
*117 net29
*118 net3
*119 net30
*120 net31
*121 net32
*122 net33
*123 net34
*124 net35
*125 net36
*126 net37
*127 net38
*128 net39
*129 net4
*130 net40
*131 net41
*132 net42
*133 net43
*134 net44
*135 net45
*136 net46
*137 net47
*138 net48
*139 net49
*140 net5
*141 net50
*142 net51
*143 net52
*144 net53
*145 net6
*146 net7
*147 net8
*148 net9
*149 FILLER_0_0_100
*150 FILLER_0_0_107
*151 FILLER_0_0_111
*152 FILLER_0_0_113
*153 FILLER_0_0_117
*154 FILLER_0_0_124
*155 FILLER_0_0_132
*156 FILLER_0_0_141
*157 FILLER_0_0_22
*158 FILLER_0_0_29
*159 FILLER_0_0_3
*160 FILLER_0_0_42
*161 FILLER_0_0_60
*162 FILLER_0_0_66
*163 FILLER_0_0_73
*164 FILLER_0_0_8
*165 FILLER_0_0_80
*166 FILLER_0_0_94
*167 FILLER_0_10_109
*168 FILLER_0_10_121
*169 FILLER_0_10_133
*170 FILLER_0_10_139
*171 FILLER_0_10_141
*172 FILLER_0_10_145
*173 FILLER_0_10_15
*174 FILLER_0_10_27
*175 FILLER_0_10_29
*176 FILLER_0_10_3
*177 FILLER_0_10_41
*178 FILLER_0_10_53
*179 FILLER_0_10_65
*180 FILLER_0_10_77
*181 FILLER_0_10_83
*182 FILLER_0_10_85
*183 FILLER_0_10_97
*184 FILLER_0_11_105
*185 FILLER_0_11_111
*186 FILLER_0_11_113
*187 FILLER_0_11_12
*188 FILLER_0_11_125
*189 FILLER_0_11_137
*190 FILLER_0_11_24
*191 FILLER_0_11_36
*192 FILLER_0_11_48
*193 FILLER_0_11_57
*194 FILLER_0_11_69
*195 FILLER_0_11_81
*196 FILLER_0_11_93
*197 FILLER_0_12_109
*198 FILLER_0_12_121
*199 FILLER_0_12_133
*200 FILLER_0_12_139
*201 FILLER_0_12_144
*202 FILLER_0_12_15
*203 FILLER_0_12_27
*204 FILLER_0_12_29
*205 FILLER_0_12_3
*206 FILLER_0_12_41
*207 FILLER_0_12_53
*208 FILLER_0_12_65
*209 FILLER_0_12_77
*210 FILLER_0_12_83
*211 FILLER_0_12_85
*212 FILLER_0_12_97
*213 FILLER_0_13_105
*214 FILLER_0_13_111
*215 FILLER_0_13_113
*216 FILLER_0_13_124
*217 FILLER_0_13_130
*218 FILLER_0_13_145
*219 FILLER_0_13_21
*220 FILLER_0_13_33
*221 FILLER_0_13_45
*222 FILLER_0_13_53
*223 FILLER_0_13_57
*224 FILLER_0_13_69
*225 FILLER_0_13_81
*226 FILLER_0_13_9
*227 FILLER_0_13_93
*228 FILLER_0_14_109
*229 FILLER_0_14_141
*230 FILLER_0_14_16
*231 FILLER_0_14_22
*232 FILLER_0_14_29
*233 FILLER_0_14_3
*234 FILLER_0_14_41
*235 FILLER_0_14_53
*236 FILLER_0_14_65
*237 FILLER_0_14_77
*238 FILLER_0_14_8
*239 FILLER_0_14_83
*240 FILLER_0_14_85
*241 FILLER_0_14_97
*242 FILLER_0_15_105
*243 FILLER_0_15_111
*244 FILLER_0_15_132
*245 FILLER_0_15_143
*246 FILLER_0_15_15
*247 FILLER_0_15_36
*248 FILLER_0_15_48
*249 FILLER_0_15_57
*250 FILLER_0_15_69
*251 FILLER_0_15_9
*252 FILLER_0_15_93
*253 FILLER_0_16_106
*254 FILLER_0_16_110
*255 FILLER_0_16_138
*256 FILLER_0_16_141
*257 FILLER_0_16_38
*258 FILLER_0_16_50
*259 FILLER_0_16_62
*260 FILLER_0_16_68
*261 FILLER_0_16_82
*262 FILLER_0_16_85
*263 FILLER_0_16_94
*264 FILLER_0_17_104
*265 FILLER_0_17_121
*266 FILLER_0_17_145
*267 FILLER_0_17_3
*268 FILLER_0_17_37
*269 FILLER_0_17_57
*270 FILLER_0_17_69
*271 FILLER_0_17_73
*272 FILLER_0_17_77
*273 FILLER_0_18_109
*274 FILLER_0_18_135
*275 FILLER_0_18_144
*276 FILLER_0_18_26
*277 FILLER_0_18_59
*278 FILLER_0_18_80
*279 FILLER_0_18_85
*280 FILLER_0_18_97
*281 FILLER_0_19_111
*282 FILLER_0_19_129
*283 FILLER_0_19_139
*284 FILLER_0_19_29
*285 FILLER_0_19_75
*286 FILLER_0_19_87
*287 FILLER_0_19_9
*288 FILLER_0_19_99
*289 FILLER_0_1_102
*290 FILLER_0_1_110
*291 FILLER_0_1_113
*292 FILLER_0_1_125
*293 FILLER_0_1_21
*294 FILLER_0_1_33
*295 FILLER_0_1_45
*296 FILLER_0_1_53
*297 FILLER_0_1_57
*298 FILLER_0_1_66
*299 FILLER_0_1_78
*300 FILLER_0_1_9
*301 FILLER_0_1_90
*302 FILLER_0_20_10
*303 FILLER_0_20_108
*304 FILLER_0_20_113
*305 FILLER_0_20_119
*306 FILLER_0_20_123
*307 FILLER_0_20_132
*308 FILLER_0_20_14
*309 FILLER_0_20_144
*310 FILLER_0_20_27
*311 FILLER_0_20_3
*312 FILLER_0_20_38
*313 FILLER_0_20_54
*314 FILLER_0_20_63
*315 FILLER_0_20_78
*316 FILLER_0_20_85
*317 FILLER_0_20_89
*318 FILLER_0_20_93
*319 FILLER_0_2_109
*320 FILLER_0_2_121
*321 FILLER_0_2_133
*322 FILLER_0_2_139
*323 FILLER_0_2_141
*324 FILLER_0_2_145
*325 FILLER_0_2_15
*326 FILLER_0_2_27
*327 FILLER_0_2_29
*328 FILLER_0_2_3
*329 FILLER_0_2_41
*330 FILLER_0_2_53
*331 FILLER_0_2_65
*332 FILLER_0_2_77
*333 FILLER_0_2_83
*334 FILLER_0_2_85
*335 FILLER_0_2_97
*336 FILLER_0_3_105
*337 FILLER_0_3_111
*338 FILLER_0_3_113
*339 FILLER_0_3_12
*340 FILLER_0_3_125
*341 FILLER_0_3_137
*342 FILLER_0_3_24
*343 FILLER_0_3_36
*344 FILLER_0_3_48
*345 FILLER_0_3_57
*346 FILLER_0_3_69
*347 FILLER_0_3_81
*348 FILLER_0_3_93
*349 FILLER_0_4_109
*350 FILLER_0_4_121
*351 FILLER_0_4_133
*352 FILLER_0_4_139
*353 FILLER_0_4_141
*354 FILLER_0_4_145
*355 FILLER_0_4_15
*356 FILLER_0_4_27
*357 FILLER_0_4_29
*358 FILLER_0_4_3
*359 FILLER_0_4_41
*360 FILLER_0_4_53
*361 FILLER_0_4_65
*362 FILLER_0_4_77
*363 FILLER_0_4_83
*364 FILLER_0_4_85
*365 FILLER_0_4_97
*366 FILLER_0_5_105
*367 FILLER_0_5_111
*368 FILLER_0_5_113
*369 FILLER_0_5_125
*370 FILLER_0_5_137
*371 FILLER_0_5_145
*372 FILLER_0_5_21
*373 FILLER_0_5_33
*374 FILLER_0_5_45
*375 FILLER_0_5_53
*376 FILLER_0_5_57
*377 FILLER_0_5_69
*378 FILLER_0_5_81
*379 FILLER_0_5_9
*380 FILLER_0_5_93
*381 FILLER_0_6_109
*382 FILLER_0_6_121
*383 FILLER_0_6_133
*384 FILLER_0_6_139
*385 FILLER_0_6_141
*386 FILLER_0_6_15
*387 FILLER_0_6_27
*388 FILLER_0_6_29
*389 FILLER_0_6_3
*390 FILLER_0_6_41
*391 FILLER_0_6_53
*392 FILLER_0_6_65
*393 FILLER_0_6_77
*394 FILLER_0_6_83
*395 FILLER_0_6_85
*396 FILLER_0_6_97
*397 FILLER_0_7_105
*398 FILLER_0_7_111
*399 FILLER_0_7_113
*400 FILLER_0_7_125
*401 FILLER_0_7_137
*402 FILLER_0_7_143
*403 FILLER_0_7_21
*404 FILLER_0_7_33
*405 FILLER_0_7_45
*406 FILLER_0_7_53
*407 FILLER_0_7_57
*408 FILLER_0_7_69
*409 FILLER_0_7_81
*410 FILLER_0_7_9
*411 FILLER_0_7_93
*412 FILLER_0_8_109
*413 FILLER_0_8_121
*414 FILLER_0_8_133
*415 FILLER_0_8_139
*416 FILLER_0_8_141
*417 FILLER_0_8_15
*418 FILLER_0_8_27
*419 FILLER_0_8_29
*420 FILLER_0_8_3
*421 FILLER_0_8_41
*422 FILLER_0_8_53
*423 FILLER_0_8_65
*424 FILLER_0_8_77
*425 FILLER_0_8_83
*426 FILLER_0_8_85
*427 FILLER_0_8_97
*428 FILLER_0_9_105
*429 FILLER_0_9_111
*430 FILLER_0_9_113
*431 FILLER_0_9_125
*432 FILLER_0_9_137
*433 FILLER_0_9_145
*434 FILLER_0_9_16
*435 FILLER_0_9_28
*436 FILLER_0_9_40
*437 FILLER_0_9_52
*438 FILLER_0_9_57
*439 FILLER_0_9_69
*440 FILLER_0_9_81
*441 FILLER_0_9_9
*442 FILLER_0_9_93
*443 PHY_0
*444 PHY_1
*445 PHY_10
*446 PHY_11
*447 PHY_12
*448 PHY_13
*449 PHY_14
*450 PHY_15
*451 PHY_16
*452 PHY_17
*453 PHY_18
*454 PHY_19
*455 PHY_2
*456 PHY_20
*457 PHY_21
*458 PHY_22
*459 PHY_23
*460 PHY_24
*461 PHY_25
*462 PHY_26
*463 PHY_27
*464 PHY_28
*465 PHY_29
*466 PHY_3
*467 PHY_30
*468 PHY_31
*469 PHY_32
*470 PHY_33
*471 PHY_34
*472 PHY_35
*473 PHY_36
*474 PHY_37
*475 PHY_38
*476 PHY_39
*477 PHY_4
*478 PHY_40
*479 PHY_41
*480 PHY_5
*481 PHY_6
*482 PHY_7
*483 PHY_8
*484 PHY_9
*485 TAP_42
*486 TAP_43
*487 TAP_44
*488 TAP_45
*489 TAP_46
*490 TAP_47
*491 TAP_48
*492 TAP_49
*493 TAP_50
*494 TAP_51
*495 TAP_52
*496 TAP_53
*497 TAP_54
*498 TAP_55
*499 TAP_56
*500 TAP_57
*501 TAP_58
*502 TAP_59
*503 TAP_60
*504 TAP_61
*505 TAP_62
*506 TAP_63
*507 TAP_64
*508 TAP_65
*509 TAP_66
*510 TAP_67
*511 TAP_68
*512 TAP_69
*513 TAP_70
*514 TAP_71
*515 TAP_72
*516 TAP_73
*517 TAP_74
*518 TAP_75
*519 TAP_76
*520 TAP_77
*521 TAP_78
*522 TAP_79
*523 TAP_80
*524 TAP_81
*525 TAP_82
*526 TAP_83
*527 TAP_84
*528 TAP_85
*529 TAP_86
*530 TAP_87
*531 TAP_88
*532 TAP_89
*533 TAP_90
*534 TAP_91
*535 TAP_92
*536 TAP_93
*537 TAP_94
*538 TAP_95
*539 TAP_96
*540 TAP_97
*541 TAP_98
*542 _028_
*543 _029_
*544 _030_
*545 _031_
*546 _032_
*547 _033_
*548 _034_
*549 _035_
*550 _036_
*551 _037_
*552 _038_
*553 _039_
*554 _040_
*555 _041_
*556 _042_
*557 _043_
*558 _044_
*559 _045_
*560 _046_
*561 _047_
*562 _048_
*563 _049_
*564 _050_
*565 _051_
*566 _052_
*567 _053_
*568 _054_
*569 _055_
*570 _056_
*571 _057_
*572 _058_
*573 _059_
*574 _060_
*575 _061_
*576 _062_
*577 _063_
*578 _064_
*579 _065_
*580 _066_
*581 _067_
*582 _068_
*583 _069_
*584 _070_
*585 _071_
*586 _076_
*587 _077_
*588 _078_
*589 _079_
*590 _080_
*591 _081_
*592 _082_
*593 _083_
*594 _084_
*595 _085_
*596 _086_
*597 _087_
*598 _088_
*599 _089_
*600 _090_
*601 _091_
*602 _092_
*603 _093_
*604 _093__43
*605 _094_
*606 _094__44
*607 _095_
*608 _096_
*609 _097_
*610 _098_
*611 _098__45
*612 _099_
*613 _100_
*614 _101_
*615 _102_
*616 _103_
*617 _103__46
*618 _104_
*619 _105_
*620 clkbuf_0_prog_clk
*621 clkbuf_1_0__f_prog_clk
*622 clkbuf_1_1__f_prog_clk
*623 hold1
*624 hold2
*625 hold3
*626 hold4
*627 hold5
*628 hold6
*629 hold7
*630 input1
*631 input10
*632 input11
*633 input12
*634 input13
*635 input14
*636 input15
*637 input16
*638 input17
*639 input18
*640 input19
*641 input2
*642 input20
*643 input21
*644 input22
*645 input23
*646 input3
*647 input4
*648 input5
*649 input6
*650 input7
*651 input8
*652 input9
*653 output24
*654 output25
*655 output26
*656 output27
*657 output28
*658 output29
*659 output30
*660 output31
*661 output32
*662 output33
*663 output34
*664 output35
*665 output36
*666 output37
*667 output38
*668 output39
*669 output40
*670 output41
*671 output42

*PORTS
ccff_head I
ccff_tail O
chanx_left_in[0] I
chanx_left_in[1] I
chanx_left_in[2] I
chanx_left_in[3] I
chanx_left_in[4] I
chanx_left_in[5] I
chanx_left_in[6] I
chanx_left_in[7] I
chanx_left_in[8] I
chanx_left_out[0] O
chanx_left_out[1] O
chanx_left_out[2] O
chanx_left_out[3] O
chanx_left_out[4] O
chanx_left_out[5] O
chanx_left_out[6] O
chanx_left_out[7] O
chanx_left_out[8] O
chany_top_in[0] I
chany_top_in[1] I
chany_top_in[2] I
chany_top_in[3] I
chany_top_in[4] I
chany_top_in[5] I
chany_top_in[6] I
chany_top_in[7] I
chany_top_in[8] I
chany_top_out[0] O
chany_top_out[1] O
chany_top_out[2] O
chany_top_out[3] O
chany_top_out[4] O
chany_top_out[5] O
chany_top_out[6] O
chany_top_out[7] O
chany_top_out[8] O
left_bottom_grid_top_width_0_height_0_subtile_0__pin_inpad_0_ I
left_top_grid_bottom_width_0_height_0_subtile_0__pin_O_0_ I
prog_clk I
top_left_grid_right_width_0_height_0_subtile_0__pin_O_3_ I
top_right_grid_left_width_0_height_0_subtile_0__pin_inpad_0_ I

*D_NET *1 0.0010654
*CONN
*P ccff_head I
*I *630:A I *D sky130_fd_sc_hd__clkbuf_1
*CAP
1 ccff_head 0.000424561
2 *630:A 0.000424561
3 *630:A ccff_tail 0
4 *630:A *631:A 0
5 *630:A *645:A 0.00021628
*RES
1 ccff_head *630:A 21.6758 
*END

*D_NET *2 0.00159241
*CONN
*P ccff_tail O
*I *653:X O *D sky130_fd_sc_hd__clkbuf_4
*CAP
1 ccff_tail 0.000688524
2 *653:X 0.000688524
3 ccff_tail *566:A 3.18676e-05
4 ccff_tail *644:A 0.000183491
5 ccff_tail *645:A 0
6 *630:A ccff_tail 0
*RES
1 *653:X ccff_tail 24.7715 
*END

*D_NET *3 0.00110892
*CONN
*P chanx_left_in[0] I
*I *641:A I *D sky130_fd_sc_hd__buf_1
*CAP
1 chanx_left_in[0] 0.000554459
2 *641:A 0.000554459
3 *641:A chanx_left_out[7] 0
4 *641:A chanx_left_out[8] 0
5 *641:A *646:A 0
*RES
1 chanx_left_in[0] *641:A 24.2479 
*END

*D_NET *4 0.00132966
*CONN
*P chanx_left_in[1] I
*I *646:A I *D sky130_fd_sc_hd__clkbuf_1
*CAP
1 chanx_left_in[1] 0.000664829
2 *646:A 0.000664829
3 *646:A *647:A 0
4 *646:A *91:12 0
5 *646:A *107:16 0
6 *641:A *646:A 0
*RES
1 chanx_left_in[1] *646:A 20.8965 
*END

*D_NET *5 0.000692641
*CONN
*P chanx_left_in[2] I
*I *647:A I *D sky130_fd_sc_hd__clkbuf_1
*CAP
1 chanx_left_in[2] 0.00034632
2 *647:A 0.00034632
3 *647:A *648:A 0
4 *647:A *107:16 0
5 *646:A *647:A 0
*RES
1 chanx_left_in[2] *647:A 21.0489 
*END

*D_NET *6 0.000961917
*CONN
*P chanx_left_in[3] I
*I *648:A I *D sky130_fd_sc_hd__buf_1
*CAP
1 chanx_left_in[3] 0.000449586
2 *648:A 0.000449586
3 *648:A *649:A 0
4 *648:A *107:16 6.27457e-05
5 *647:A *648:A 0
*RES
1 chanx_left_in[3] *648:A 20.605 
*END

*D_NET *7 0.000696181
*CONN
*P chanx_left_in[4] I
*I *649:A I *D sky130_fd_sc_hd__buf_1
*CAP
1 chanx_left_in[4] 0.000348091
2 *649:A 0.000348091
3 *649:A *650:A 0
4 *649:A *107:16 0
5 *648:A *649:A 0
*RES
1 chanx_left_in[4] *649:A 20.2137 
*END

*D_NET *8 0.000810617
*CONN
*P chanx_left_in[5] I
*I *650:A I *D sky130_fd_sc_hd__buf_1
*CAP
1 chanx_left_in[5] 0.000405308
2 *650:A 0.000405308
3 *650:A *651:A 0
4 *650:A *107:16 0
5 *649:A *650:A 0
*RES
1 chanx_left_in[5] *650:A 22.2632 
*END

*D_NET *9 0.0011162
*CONN
*P chanx_left_in[6] I
*I *651:A I *D sky130_fd_sc_hd__clkbuf_1
*CAP
1 chanx_left_in[6] 0.000516866
2 *651:A 0.000516866
3 *651:A *598:A 8.24716e-05
4 *651:A *652:A 0
5 *650:A *651:A 0
*RES
1 chanx_left_in[6] *651:A 21.8193 
*END

*D_NET *10 0.000956479
*CONN
*P chanx_left_in[7] I
*I *652:A I *D sky130_fd_sc_hd__buf_1
*CAP
1 chanx_left_in[7] 0.000456757
2 *652:A 0.000456757
3 *652:A *600:Z 0
4 *652:A *631:A 0
5 *652:A *148:14 4.29654e-05
6 *651:A *652:A 0
*RES
1 chanx_left_in[7] *652:A 20.605 
*END

*D_NET *11 0.00137125
*CONN
*P chanx_left_in[8] I
*I *631:A I *D sky130_fd_sc_hd__clkbuf_1
*CAP
1 chanx_left_in[8] 0.000658009
2 *631:A 0.000658009
3 *631:A *569:A 5.52302e-05
4 *631:A *600:Z 0
5 *630:A *631:A 0
6 *652:A *631:A 0
*RES
1 chanx_left_in[8] *631:A 23.002 
*END

*D_NET *12 0.000795906
*CONN
*P chanx_left_out[0] O
*I *654:X O *D sky130_fd_sc_hd__clkbuf_4
*CAP
1 chanx_left_out[0] 0.000397953
2 *654:X 0.000397953
*RES
1 *654:X chanx_left_out[0] 21.5321 
*END

*D_NET *13 0.000795243
*CONN
*P chanx_left_out[1] O
*I *655:X O *D sky130_fd_sc_hd__clkbuf_4
*CAP
1 chanx_left_out[1] 0.000397622
2 *655:X 0.000397622
3 chanx_left_out[1] *121:12 0
*RES
1 *655:X chanx_left_out[1] 21.5321 
*END

*D_NET *14 0.000808094
*CONN
*P chanx_left_out[2] O
*I *656:X O *D sky130_fd_sc_hd__clkbuf_4
*CAP
1 chanx_left_out[2] 0.000404047
2 *656:X 0.000404047
3 chanx_left_out[2] *101:14 0
4 chanx_left_out[2] *120:16 0
5 chanx_left_out[2] *121:12 0
*RES
1 *656:X chanx_left_out[2] 21.5321 
*END

*D_NET *15 0.000809629
*CONN
*P chanx_left_out[3] O
*I *657:X O *D sky130_fd_sc_hd__clkbuf_4
*CAP
1 chanx_left_out[3] 0.000404815
2 *657:X 0.000404815
3 chanx_left_out[3] *120:16 0
*RES
1 *657:X chanx_left_out[3] 21.6571 
*END

*D_NET *16 0.000933858
*CONN
*P chanx_left_out[4] O
*I *658:X O *D sky130_fd_sc_hd__clkbuf_4
*CAP
1 chanx_left_out[4] 0.000466929
2 *658:X 0.000466929
*RES
1 *658:X chanx_left_out[4] 24.05 
*END

*D_NET *17 0.00103658
*CONN
*P chanx_left_out[5] O
*I *659:X O *D sky130_fd_sc_hd__clkbuf_4
*CAP
1 chanx_left_out[5] 0.000466168
2 *659:X 0.000466168
3 chanx_left_out[5] *659:A 9.90431e-05
4 chanx_left_out[5] *91:18 5.19842e-06
*RES
1 *659:X chanx_left_out[5] 22.05 
*END

*D_NET *18 0.0010013
*CONN
*P chanx_left_out[6] O
*I *660:X O *D sky130_fd_sc_hd__clkbuf_4
*CAP
1 chanx_left_out[6] 0.000475332
2 *660:X 0.000475332
3 chanx_left_out[6] *91:18 1.36681e-05
4 chanx_left_out[6] *120:16 3.69697e-05
*RES
1 *660:X chanx_left_out[6] 22.05 
*END

*D_NET *19 0.00095573
*CONN
*P chanx_left_out[7] O
*I *661:X O *D sky130_fd_sc_hd__clkbuf_4
*CAP
1 chanx_left_out[7] 0.000457069
2 *661:X 0.000457069
3 chanx_left_out[7] *121:22 4.15914e-05
4 *641:A chanx_left_out[7] 0
*RES
1 *661:X chanx_left_out[7] 24.175 
*END

*D_NET *20 0.00146964
*CONN
*P chanx_left_out[8] O
*I *662:X O *D sky130_fd_sc_hd__clkbuf_4
*CAP
1 chanx_left_out[8] 0.000734818
2 *662:X 0.000734818
3 *641:A chanx_left_out[8] 0
*RES
1 *662:X chanx_left_out[8] 26.1214 
*END

*D_NET *21 0.0018797
*CONN
*P chany_top_in[0] I
*I *632:A I *D sky130_fd_sc_hd__clkbuf_1
*CAP
1 chany_top_in[0] 0.000797316
2 *632:A 0.000797316
3 *632:A *548:A 0.00014285
4 *632:A *586:A 0
5 *632:A *642:A 0.000142216
6 *632:A *643:A 0
*RES
1 chany_top_in[0] *632:A 28.7286 
*END

*D_NET *22 0.00106662
*CONN
*P chany_top_in[1] I
*I *633:A I *D sky130_fd_sc_hd__clkbuf_1
*CAP
1 chany_top_in[1] 0.000505694
2 *633:A 0.000505694
3 *633:A *549:A 0
4 *633:A *642:A 5.52302e-05
*RES
1 chany_top_in[1] *633:A 23.3536 
*END

*D_NET *23 0.00128062
*CONN
*P chany_top_in[2] I
*I *634:A I *D sky130_fd_sc_hd__buf_1
*CAP
1 chany_top_in[2] 0.000640308
2 *634:A 0.000640308
*RES
1 chany_top_in[2] *634:A 25.6571 
*END

*D_NET *24 0.00120287
*CONN
*P chany_top_in[3] I
*I *635:A I *D sky130_fd_sc_hd__buf_1
*CAP
1 chany_top_in[3] 0.000567066
2 *635:A 0.000567066
3 *635:A *619:A 1.24368e-05
4 *635:A *101:8 5.62995e-05
*RES
1 chany_top_in[3] *635:A 24.5857 
*END

*D_NET *25 0.00122308
*CONN
*P chany_top_in[4] I
*I *636:A I *D sky130_fd_sc_hd__buf_1
*CAP
1 chany_top_in[4] 0.000534368
2 *636:A 0.000534368
3 *636:A *592:A 5.24754e-05
4 *636:A *653:A 2.8266e-06
5 *636:A *106:10 9.90431e-05
*RES
1 chany_top_in[4] *636:A 24.55 
*END

*D_NET *26 0.00107952
*CONN
*P chany_top_in[5] I
*I *637:A I *D sky130_fd_sc_hd__buf_1
*CAP
1 chany_top_in[5] 0.000483984
2 *637:A 0.000483984
3 *637:A *592:A 5.65955e-05
4 *637:A *653:A 5.49544e-05
*RES
1 chany_top_in[5] *637:A 23.3536 
*END

*D_NET *27 0.00107389
*CONN
*P chany_top_in[6] I
*I *638:A I *D sky130_fd_sc_hd__buf_1
*CAP
1 chany_top_in[6] 0.00048103
2 *638:A 0.00048103
3 *638:A *592:A 5.68713e-05
4 *638:A *653:A 5.49544e-05
*RES
1 chany_top_in[6] *638:A 23.3536 
*END

*D_NET *28 0.00122238
*CONN
*P chany_top_in[7] I
*I *639:A I *D sky130_fd_sc_hd__clkbuf_1
*CAP
1 chany_top_in[7] 0.000511188
2 *639:A 0.000511188
3 *639:A *592:A 5.71472e-05
4 *639:A *653:A 0.000142856
*RES
1 chany_top_in[7] *639:A 24.175 
*END

*D_NET *29 0.00118219
*CONN
*P chany_top_in[8] I
*I *640:A I *D sky130_fd_sc_hd__buf_1
*CAP
1 chany_top_in[8] 0.000504254
2 *640:A 0.000504254
3 *640:A *653:A 0.000144773
4 *640:A *106:10 2.89114e-05
*RES
1 chany_top_in[8] *640:A 24.175 
*END

*D_NET *30 0.000639166
*CONN
*P chany_top_out[0] O
*I *663:X O *D sky130_fd_sc_hd__clkbuf_4
*CAP
1 chany_top_out[0] 0.000309596
2 *663:X 0.000309596
3 chany_top_out[0] chany_top_out[1] 0
4 chany_top_out[0] *663:A 1.99737e-05
*RES
1 *663:X chany_top_out[0] 19.0026 
*END

*D_NET *31 0.000738689
*CONN
*P chany_top_out[1] O
*I *664:X O *D sky130_fd_sc_hd__clkbuf_4
*CAP
1 chany_top_out[1] 0.000369344
2 *664:X 0.000369344
3 chany_top_out[1] chany_top_out[2] 0
4 chany_top_out[0] chany_top_out[1] 0
*RES
1 *664:X chany_top_out[1] 21.5661 
*END

*D_NET *32 0.000738689
*CONN
*P chany_top_out[2] O
*I *665:X O *D sky130_fd_sc_hd__clkbuf_4
*CAP
1 chany_top_out[2] 0.000369344
2 *665:X 0.000369344
3 chany_top_out[2] chany_top_out[3] 0
4 chany_top_out[1] chany_top_out[2] 0
*RES
1 *665:X chany_top_out[2] 21.5661 
*END

*D_NET *33 0.000747753
*CONN
*P chany_top_out[3] O
*I *666:X O *D sky130_fd_sc_hd__clkbuf_4
*CAP
1 chany_top_out[3] 0.000373876
2 *666:X 0.000373876
3 chany_top_out[3] chany_top_out[4] 0
4 chany_top_out[3] *665:A 0
5 chany_top_out[2] chany_top_out[3] 0
*RES
1 *666:X chany_top_out[3] 21.5661 
*END

*D_NET *34 0.000684712
*CONN
*P chany_top_out[4] O
*I *667:X O *D sky130_fd_sc_hd__clkbuf_4
*CAP
1 chany_top_out[4] 0.000288508
2 *667:X 0.000288508
3 chany_top_out[4] chany_top_out[5] 0
4 chany_top_out[4] *665:A 0.000107695
5 chany_top_out[3] chany_top_out[4] 0
*RES
1 *667:X chany_top_out[4] 19.4092 
*END

*D_NET *35 0.000742398
*CONN
*P chany_top_out[5] O
*I *668:X O *D sky130_fd_sc_hd__clkbuf_4
*CAP
1 chany_top_out[5] 0.00034765
2 *668:X 0.00034765
3 chany_top_out[5] chany_top_out[6] 0
4 chany_top_out[5] *665:A 4.70981e-05
5 chany_top_out[4] chany_top_out[5] 0
*RES
1 *668:X chany_top_out[5] 18.7586 
*END

*D_NET *36 0.000738689
*CONN
*P chany_top_out[6] O
*I *669:X O *D sky130_fd_sc_hd__clkbuf_4
*CAP
1 chany_top_out[6] 0.000369344
2 *669:X 0.000369344
3 chany_top_out[6] chany_top_out[7] 0
4 chany_top_out[6] *665:A 0
5 chany_top_out[5] chany_top_out[6] 0
*RES
1 *669:X chany_top_out[6] 21.5661 
*END

*D_NET *37 0.000738689
*CONN
*P chany_top_out[7] O
*I *670:X O *D sky130_fd_sc_hd__clkbuf_4
*CAP
1 chany_top_out[7] 0.000369344
2 *670:X 0.000369344
3 chany_top_out[7] chany_top_out[8] 0
4 chany_top_out[7] *670:A 0
5 chany_top_out[6] chany_top_out[7] 0
*RES
1 *670:X chany_top_out[7] 21.5661 
*END

*D_NET *38 0.00137164
*CONN
*P chany_top_out[8] O
*I *671:X O *D sky130_fd_sc_hd__clkbuf_4
*CAP
1 chany_top_out[8] 0.000527047
2 *671:X 0.000527047
3 chany_top_out[8] *573:A 4.15914e-05
4 chany_top_out[8] *582:D 6.97972e-05
5 chany_top_out[8] *620:A 0
6 chany_top_out[8] *643:A 0.000151355
7 chany_top_out[8] *671:A 5.48046e-05
8 chany_top_out[7] chany_top_out[8] 0
*RES
1 *671:X chany_top_out[8] 22.8115 
*END

*D_NET *39 0.00161097
*CONN
*P left_bottom_grid_top_width_0_height_0_subtile_0__pin_inpad_0_ I
*I *642:A I *D sky130_fd_sc_hd__clkbuf_1
*CAP
1 left_bottom_grid_top_width_0_height_0_subtile_0__pin_inpad_0_ 0.000467683
2 *642:A 0.000467683
3 *642:A *548:A 0.00014285
4 *642:A *549:A 7.03393e-05
5 *642:A *572:A 0.000188883
6 *642:A *586:A 5.65955e-05
7 *642:A *620:A 0
8 *642:A *643:A 1.94945e-05
9 *632:A *642:A 0.000142216
10 *633:A *642:A 5.52302e-05
*RES
1 left_bottom_grid_top_width_0_height_0_subtile_0__pin_inpad_0_ *642:A 25.3008 
*END

*D_NET *40 0.00170178
*CONN
*P left_top_grid_bottom_width_0_height_0_subtile_0__pin_O_0_ I
*I *643:A I *D sky130_fd_sc_hd__clkbuf_1
*CAP
1 left_top_grid_bottom_width_0_height_0_subtile_0__pin_O_0_ 0.000713185
2 *643:A 0.000713185
3 *643:A *549:A 0
4 *643:A *573:A 6.2966e-05
5 *643:A *612:A 4.15914e-05
6 chany_top_out[8] *643:A 0.000151355
7 *632:A *643:A 0
8 *642:A *643:A 1.94945e-05
*RES
1 left_top_grid_bottom_width_0_height_0_subtile_0__pin_O_0_ *643:A 27.7341 
*END

*D_NET *41 0.0044069
*CONN
*P prog_clk I
*I *620:A I *D sky130_fd_sc_hd__clkbuf_16
*CAP
1 prog_clk 0.00182036
2 *620:A 0.00182036
3 *620:A *574:A 0.000345189
4 *620:A *577:A 3.70678e-06
5 *620:A *584:CLK 4.27438e-05
6 *620:A *584:D 1.64343e-05
7 *620:A *618:TE_B 2.39942e-05
8 *620:A *623:A 0.000141554
9 *620:A *76:12 8.23597e-06
10 *620:A *112:6 5.36426e-05
11 *620:A *112:21 3.48705e-05
12 *620:A *114:8 9.58126e-05
13 chany_top_out[8] *620:A 0
14 *642:A *620:A 0
*RES
1 prog_clk *620:A 33.3735 
*END

*D_NET *42 0.00162663
*CONN
*P top_left_grid_right_width_0_height_0_subtile_0__pin_O_3_ I
*I *644:A I *D sky130_fd_sc_hd__clkbuf_1
*CAP
1 top_left_grid_right_width_0_height_0_subtile_0__pin_O_3_ 0.00053394
2 *644:A 0.00053394
3 *644:A *566:A 0.000318107
4 *644:A *653:A 5.71472e-05
5 ccff_tail *644:A 0.000183491
*RES
1 top_left_grid_right_width_0_height_0_subtile_0__pin_O_3_ *644:A 26.6393 
*END

*D_NET *43 0.00166428
*CONN
*P top_right_grid_left_width_0_height_0_subtile_0__pin_inpad_0_ I
*I *645:A I *D sky130_fd_sc_hd__clkbuf_1
*CAP
1 top_right_grid_left_width_0_height_0_subtile_0__pin_inpad_0_ 0.000712628
2 *645:A 0.000712628
3 *645:A *579:D 2.27416e-05
4 ccff_tail *645:A 0
5 *630:A *645:A 0.00021628
*RES
1 top_right_grid_left_width_0_height_0_subtile_0__pin_inpad_0_ *645:A 28.3179 
*END

*D_NET *46 0.000175452
*CONN
*I *544:A I *D sky130_fd_sc_hd__clkbuf_1
*I *543:X O *D sky130_fd_sc_hd__clkbuf_1
*CAP
1 *544:A 4.50895e-05
2 *543:X 4.50895e-05
3 *544:A *543:A 6.25316e-05
4 *544:A *616:Z 2.27416e-05
*RES
1 *543:X *544:A 19.8679 
*END

*D_NET *47 0.000193746
*CONN
*I *546:A I *D sky130_fd_sc_hd__clkbuf_1
*I *545:X O *D sky130_fd_sc_hd__clkbuf_1
*CAP
1 *546:A 3.14234e-05
2 *545:X 3.14234e-05
3 *546:A *542:A 2.80068e-05
4 *546:A *545:A 8.95578e-05
5 *546:A *615:A 1.33343e-05
*RES
1 *545:X *546:A 19.8679 
*END

*D_NET *48 0.0015303
*CONN
*I *550:A I *D sky130_fd_sc_hd__clkbuf_1
*I *549:X O *D sky130_fd_sc_hd__clkbuf_1
*CAP
1 *550:A 0.000587032
2 *549:X 0.000587032
3 *550:A *613:A 0
4 *550:A *614:A 9.60939e-05
5 *550:A *615:A 0
6 *550:A *623:A 7.3237e-05
7 *550:A *76:12 0
8 *550:A *100:10 0
9 *550:A *122:10 0
10 *550:A *122:14 0.000186902
*RES
1 *549:X *550:A 37.5643 
*END

*D_NET *49 0.000233868
*CONN
*I *552:A I *D sky130_fd_sc_hd__clkbuf_1
*I *551:X O *D sky130_fd_sc_hd__clkbuf_1
*CAP
1 *552:A 8.38966e-05
2 *551:X 8.38966e-05
3 *552:A *583:D 2.1768e-05
4 *552:A *71:29 4.43073e-05
*RES
1 *551:X *552:A 20.2964 
*END

*D_NET *50 0.00102174
*CONN
*I *556:A I *D sky130_fd_sc_hd__clkbuf_1
*I *555:X O *D sky130_fd_sc_hd__clkbuf_1
*CAP
1 *556:A 0.000341337
2 *555:X 0.000341337
3 *556:A *562:A 8.00806e-05
4 *556:A *578:D 0
5 *556:A *607:TE_B 7.94648e-05
6 *556:A *626:A 0.000167394
7 *556:A *78:10 1.21258e-05
*RES
1 *555:X *556:A 34.85 
*END

*D_NET *51 0.000294477
*CONN
*I *558:A I *D sky130_fd_sc_hd__clkbuf_1
*I *557:X O *D sky130_fd_sc_hd__clkbuf_1
*CAP
1 *558:A 9.09957e-05
2 *557:X 9.09957e-05
3 *558:A *557:A 2.34059e-05
4 *558:A *95:24 8.90799e-05
*RES
1 *557:X *558:A 20.6893 
*END

*D_NET *52 0.000175452
*CONN
*I *560:A I *D sky130_fd_sc_hd__clkbuf_1
*I *559:X O *D sky130_fd_sc_hd__clkbuf_1
*CAP
1 *560:A 5.64603e-05
2 *559:X 5.64603e-05
3 *560:A *559:A 6.25316e-05
4 *560:A *603:TE_B 0
*RES
1 *559:X *560:A 19.8679 
*END

*D_NET *53 0.000784379
*CONN
*I *563:A I *D sky130_fd_sc_hd__clkbuf_1
*I *562:X O *D sky130_fd_sc_hd__clkbuf_1
*CAP
1 *563:A 0.000288113
2 *562:X 0.000288113
3 *563:A *600:Z 0
4 *563:A *601:A 6.67226e-05
5 *563:A *78:10 0
6 *563:A *148:14 0.000141431
*RES
1 *562:X *563:A 32.5107 
*END

*D_NET *54 0.000470402
*CONN
*I *600:TE_B I *D sky130_fd_sc_hd__ebufn_1
*I *564:Y O *D sky130_fd_sc_hd__inv_2
*CAP
1 *600:TE_B 0.000218075
2 *564:Y 0.000218075
3 *600:TE_B *554:A 3.42509e-05
4 *600:TE_B *77:10 0
*RES
1 *564:Y *600:TE_B 30.6 
*END

*D_NET *55 0.000623463
*CONN
*I *601:TE_B I *D sky130_fd_sc_hd__ebufn_2
*I *561:Y O *D sky130_fd_sc_hd__inv_2
*CAP
1 *601:TE_B 0.000275223
2 *561:Y 0.000275223
3 *601:TE_B *90:10 0
4 *601:TE_B *91:12 0
5 *601:TE_B *131:14 7.30174e-05
*RES
1 *561:Y *601:TE_B 31.5286 
*END

*D_NET *56 0.000431735
*CONN
*I *602:TE_B I *D sky130_fd_sc_hd__ebufn_1
*I *563:X O *D sky130_fd_sc_hd__clkbuf_1
*CAP
1 *602:TE_B 0.000149182
2 *563:X 0.000149182
3 *602:TE_B *90:10 7.83659e-05
4 *602:TE_B *118:12 4.57538e-05
5 *602:TE_B *129:14 9.25014e-06
*RES
1 *563:X *602:TE_B 30.6 
*END

*D_NET *57 0.000303981
*CONN
*I *603:TE_B I *D sky130_fd_sc_hd__ebufn_2
*I *560:X O *D sky130_fd_sc_hd__clkbuf_1
*CAP
1 *603:TE_B 0.000125833
2 *560:X 0.000125833
3 *603:TE_B *559:A 5.23142e-05
4 *560:A *603:TE_B 0
*RES
1 *560:X *603:TE_B 20.3857 
*END

*D_NET *58 0.000239322
*CONN
*I *605:TE_B I *D sky130_fd_sc_hd__ebufn_2
*I *558:X O *D sky130_fd_sc_hd__clkbuf_1
*CAP
1 *605:TE_B 9.33296e-05
2 *558:X 9.33296e-05
3 *605:TE_B *95:24 5.26625e-05
*RES
1 *558:X *605:TE_B 20.3857 
*END

*D_NET *59 0.000586759
*CONN
*I *607:TE_B I *D sky130_fd_sc_hd__ebufn_1
*I *556:X O *D sky130_fd_sc_hd__clkbuf_1
*CAP
1 *607:TE_B 0.000239446
2 *556:X 0.000239446
3 *607:TE_B *79:14 0
4 *607:TE_B *94:6 2.84026e-05
5 *556:A *607:TE_B 7.94648e-05
*RES
1 *556:X *607:TE_B 31.1357 
*END

*D_NET *60 0.000680424
*CONN
*I *608:TE_B I *D sky130_fd_sc_hd__ebufn_1
*I *554:Y O *D sky130_fd_sc_hd__inv_2
*CAP
1 *608:TE_B 0.000246975
2 *554:Y 0.000246975
3 *608:TE_B *554:A 2.34969e-05
4 *608:TE_B *570:A 7.43578e-06
5 *608:TE_B *607:A 9.86695e-05
6 *608:TE_B *94:6 5.68722e-05
*RES
1 *554:Y *608:TE_B 32.0821 
*END

*D_NET *61 0.000993043
*CONN
*I *609:TE_B I *D sky130_fd_sc_hd__ebufn_2
*I *553:Y O *D sky130_fd_sc_hd__inv_2
*CAP
1 *609:TE_B 0.000496522
2 *553:Y 0.000496522
*RES
1 *553:Y *609:TE_B 33.6714 
*END

*D_NET *62 0.000737591
*CONN
*I *610:TE_B I *D sky130_fd_sc_hd__ebufn_2
*I *552:X O *D sky130_fd_sc_hd__clkbuf_1
*CAP
1 *610:TE_B 0.00023409
2 *552:X 0.00023409
3 *610:TE_B *583:D 0.000127581
4 *610:TE_B *610:A 0.00014183
*RES
1 *552:X *610:TE_B 22.0286 
*END

*D_NET *63 0.000378751
*CONN
*I *612:TE_B I *D sky130_fd_sc_hd__ebufn_1
*I *550:X O *D sky130_fd_sc_hd__clkbuf_1
*CAP
1 *612:TE_B 0.000150759
2 *550:X 0.000150759
3 *612:TE_B *547:A 0
4 *612:TE_B *625:A 7.43578e-06
5 *612:TE_B *74:21 6.97972e-05
*RES
1 *550:X *612:TE_B 30.1893 
*END

*D_NET *64 0.00137726
*CONN
*I *613:TE_B I *D sky130_fd_sc_hd__ebufn_1
*I *548:Y O *D sky130_fd_sc_hd__inv_2
*CAP
1 *613:TE_B 0.000520294