*SPEF "ieee 1481-1999"
*DESIGN "cbx_1__0_"
*DATE "11:11:11 Fri 11 11, 1111"
*VENDOR "OpenRCX"
*PROGRAM "Parallel Extraction"
*VERSION "1.0"
*DESIGN_FLOW "NAME_SCOPE LOCAL" "PIN_CAP NONE"
*DIVIDER /
*DELIMITER :
*BUS_DELIMITER []
*T_UNIT 1 NS
*C_UNIT 1 PF
*R_UNIT 1 OHM
*L_UNIT 1 HENRY

*NAME_MAP
*1 bottom_grid_top_width_0_height_0_subtile_0__pin_outpad_0_
*2 ccff_head
*3 ccff_tail
*4 chanx_left_in[0]
*5 chanx_left_in[1]
*6 chanx_left_in[2]
*7 chanx_left_in[3]
*8 chanx_left_in[4]
*9 chanx_left_in[5]
*10 chanx_left_in[6]
*11 chanx_left_in[7]
*12 chanx_left_in[8]
*13 chanx_left_out[0]
*14 chanx_left_out[1]
*15 chanx_left_out[2]
*16 chanx_left_out[3]
*17 chanx_left_out[4]
*18 chanx_left_out[5]
*19 chanx_left_out[6]
*20 chanx_left_out[7]
*21 chanx_left_out[8]
*22 chanx_right_in[0]
*23 chanx_right_in[1]
*24 chanx_right_in[2]
*25 chanx_right_in[3]
*26 chanx_right_in[4]
*27 chanx_right_in[5]
*28 chanx_right_in[6]
*29 chanx_right_in[7]
*30 chanx_right_in[8]
*31 chanx_right_out[0]
*32 chanx_right_out[1]
*33 chanx_right_out[2]
*34 chanx_right_out[3]
*35 chanx_right_out[4]
*36 chanx_right_out[5]
*37 chanx_right_out[6]
*38 chanx_right_out[7]
*39 chanx_right_out[8]
*40 prog_clk
*41 top_grid_bottom_width_0_height_0_subtile_0__pin_I_2_
*42 top_grid_bottom_width_0_height_0_subtile_0__pin_I_6_
*45 _000_
*46 _001_
*47 _002_
*48 _003_
*49 _004_
*50 _005_
*51 _006_
*52 _007_
*53 _008_
*54 _009_
*55 _010_
*56 _011_
*57 _012_
*58 _013_
*59 _014_
*60 _015_
*61 _016_
*62 _017_
*63 _018_
*64 _019_
*65 _020_
*66 _021_
*67 _022_
*68 _023_
*69 _024_
*70 _025_
*71 _026_
*72 _027_
*73 _028_
*74 _029_
*75 _030_
*76 _031_
*77 _032_
*78 _033_
*79 _034_
*80 _035_
*81 _036_
*82 _037_
*83 _038_
*84 _039_
*85 _040_
*86 _041_
*87 clknet_0_prog_clk
*88 clknet_1_0__leaf_prog_clk
*89 clknet_1_1__leaf_prog_clk
*90 mem_bottom_ipin_0\.DFF_0_\.Q
*91 mem_bottom_ipin_0\.DFF_1_\.Q
*92 mem_bottom_ipin_0\.DFF_2_\.Q
*93 mem_bottom_ipin_1\.DFF_0_\.Q
*94 mem_bottom_ipin_1\.DFF_1_\.Q
*95 mem_top_ipin_0\.DFF_0_\.Q
*96 mem_top_ipin_0\.DFF_1_\.Q
*97 mux_bottom_ipin_0\.INVTX1_0_\.out
*98 mux_bottom_ipin_0\.INVTX1_1_\.out
*99 mux_bottom_ipin_0\.INVTX1_2_\.out
*100 mux_bottom_ipin_0\.INVTX1_3_\.out
*101 mux_bottom_ipin_0\.INVTX1_4_\.out
*102 mux_bottom_ipin_0\.INVTX1_5_\.out
*103 mux_bottom_ipin_0\.mux_l1_in_0_\.TGATE_0_\.out
*104 mux_bottom_ipin_0\.mux_l1_in_1_\.TGATE_0_\.out
*105 mux_bottom_ipin_0\.mux_l1_in_2_\.TGATE_0_\.out
*106 mux_bottom_ipin_0\.mux_l2_in_0_\.TGATE_0_\.out
*107 mux_bottom_ipin_0\.mux_l2_in_1_\.TGATE_0_\.out
*108 mux_bottom_ipin_0\.mux_l3_in_0_\.TGATE_0_\.out
*109 mux_bottom_ipin_1\.INVTX1_0_\.out
*110 mux_bottom_ipin_1\.INVTX1_1_\.out
*111 mux_bottom_ipin_1\.mux_l1_in_0_\.TGATE_0_\.out
*112 mux_bottom_ipin_1\.mux_l2_in_0_\.TGATE_0_\.out
*113 mux_top_ipin_0\.INVTX1_2_\.out
*114 mux_top_ipin_0\.INVTX1_3_\.out
*115 mux_top_ipin_0\.INVTX1_4_\.out
*116 mux_top_ipin_0\.INVTX1_5_\.out
*117 mux_top_ipin_0\.mux_l1_in_0_\.TGATE_0_\.out
*118 mux_top_ipin_0\.mux_l1_in_1_\.TGATE_0_\.out
*119 mux_top_ipin_0\.mux_l1_in_2_\.TGATE_0_\.out
*120 mux_top_ipin_0\.mux_l2_in_0_\.TGATE_0_\.out
*121 mux_top_ipin_0\.mux_l2_in_1_\.TGATE_0_\.out
*122 mux_top_ipin_0\.mux_l3_in_0_\.TGATE_0_\.out
*123 net1
*124 net10
*125 net11
*126 net12
*127 net13
*128 net14
*129 net15
*130 net16
*131 net17
*132 net18
*133 net19
*134 net2
*135 net20
*136 net21
*137 net22
*138 net23
*139 net24
*140 net25
*141 net26
*142 net27
*143 net28
*144 net29
*145 net3
*146 net30
*147 net31
*148 net32
*149 net33
*150 net34
*151 net35
*152 net36
*153 net37
*154 net38
*155 net39
*156 net4
*157 net40
*158 net41
*159 net42
*160 net43
*161 net44
*162 net45
*163 net46
*164 net47
*165 net48
*166 net49
*167 net5
*168 net50
*169 net51
*170 net6
*171 net7
*172 net8
*173 net9
*174 FILLER_0_0_15
*175 FILLER_0_0_19
*176 FILLER_0_0_26
*177 FILLER_0_0_29
*178 FILLER_0_0_37
*179 FILLER_0_0_41
*180 FILLER_0_0_48
*181 FILLER_0_0_63
*182 FILLER_0_0_70
*183 FILLER_0_0_85
*184 FILLER_0_0_95
*185 FILLER_0_10_102
*186 FILLER_0_10_15
*187 FILLER_0_10_27
*188 FILLER_0_10_29
*189 FILLER_0_10_3
*190 FILLER_0_10_41
*191 FILLER_0_10_62
*192 FILLER_0_10_67
*193 FILLER_0_10_74
*194 FILLER_0_10_82
*195 FILLER_0_11_101
*196 FILLER_0_11_18
*197 FILLER_0_11_30
*198 FILLER_0_11_38
*199 FILLER_0_11_43
*200 FILLER_0_11_47
*201 FILLER_0_11_57
*202 FILLER_0_11_6
*203 FILLER_0_11_66
*204 FILLER_0_11_84
*205 FILLER_0_12_12
*206 FILLER_0_12_27
*207 FILLER_0_12_29
*208 FILLER_0_12_38
*209 FILLER_0_12_50
*210 FILLER_0_12_61
*211 FILLER_0_12_65
*212 FILLER_0_12_72
*213 FILLER_0_13_15
*214 FILLER_0_13_19
*215 FILLER_0_13_26
*216 FILLER_0_13_29
*217 FILLER_0_13_37
*218 FILLER_0_13_41
*219 FILLER_0_13_48
*220 FILLER_0_13_63
*221 FILLER_0_13_70
*222 FILLER_0_13_74
*223 FILLER_0_13_85
*224 FILLER_0_13_92
*225 FILLER_0_1_102
*226 FILLER_0_1_16
*227 FILLER_0_1_28
*228 FILLER_0_1_40
*229 FILLER_0_1_6
*230 FILLER_0_1_66
*231 FILLER_0_1_88
*232 FILLER_0_2_101
*233 FILLER_0_2_15
*234 FILLER_0_2_23
*235 FILLER_0_2_27
*236 FILLER_0_2_29
*237 FILLER_0_2_3
*238 FILLER_0_3_102
*239 FILLER_0_3_18
*240 FILLER_0_3_30
*241 FILLER_0_3_42
*242 FILLER_0_3_50
*243 FILLER_0_3_55
*244 FILLER_0_3_57
*245 FILLER_0_3_6
*246 FILLER_0_3_67
*247 FILLER_0_4_101
*248 FILLER_0_4_15
*249 FILLER_0_4_21
*250 FILLER_0_4_3
*251 FILLER_0_4_37
*252 FILLER_0_4_46
*253 FILLER_0_4_54
*254 FILLER_0_4_83
*255 FILLER_0_5_10
*256 FILLER_0_5_47
*257 FILLER_0_5_57
*258 FILLER_0_5_6
*259 FILLER_0_5_64
*260 FILLER_0_5_93
*261 FILLER_0_6_102
*262 FILLER_0_6_15
*263 FILLER_0_6_23
*264 FILLER_0_6_29
*265 FILLER_0_6_3
*266 FILLER_0_6_52
*267 FILLER_0_6_78
*268 FILLER_0_6_83
*269 FILLER_0_7_12
*270 FILLER_0_7_16
*271 FILLER_0_7_28
*272 FILLER_0_7_54
*273 FILLER_0_7_57
*274 FILLER_0_7_6
*275 FILLER_0_8_15
*276 FILLER_0_8_27
*277 FILLER_0_8_3
*278 FILLER_0_8_56
*279 FILLER_0_8_88
*280 FILLER_0_9_18
*281 FILLER_0_9_30
*282 FILLER_0_9_36
*283 FILLER_0_9_57
*284 FILLER_0_9_6
*285 FILLER_0_9_77
*286 FILLER_0_9_89
*287 PHY_0
*288 PHY_1
*289 PHY_10
*290 PHY_11
*291 PHY_12
*292 PHY_13
*293 PHY_14
*294 PHY_15
*295 PHY_16
*296 PHY_17
*297 PHY_18
*298 PHY_19
*299 PHY_2
*300 PHY_20
*301 PHY_21
*302 PHY_22
*303 PHY_23
*304 PHY_24
*305 PHY_25
*306 PHY_26
*307 PHY_27
*308 PHY_3
*309 PHY_4
*310 PHY_5
*311 PHY_6
*312 PHY_7
*313 PHY_8
*314 PHY_9
*315 TAP_28
*316 TAP_29
*317 TAP_30
*318 TAP_31
*319 TAP_32
*320 TAP_33
*321 TAP_34
*322 TAP_35
*323 TAP_36
*324 TAP_37
*325 TAP_38
*326 TAP_39
*327 TAP_40
*328 TAP_41
*329 TAP_42
*330 TAP_43
*331 TAP_44
*332 TAP_45
*333 TAP_46
*334 TAP_47
*335 TAP_48
*336 TAP_49
*337 TAP_50
*338 TAP_51
*339 _045_
*340 _046_
*341 _047_
*342 _048_
*343 _049_
*344 _050_
*345 _051_
*346 _052_
*347 _053_
*348 _054_
*349 _055_
*350 _056_
*351 _057_
*352 _058_
*353 _059_
*354 _060_
*355 _061_
*356 _062_
*357 _063_
*358 _064_
*359 _065_
*360 _066_
*361 _067_
*362 _068_
*363 _069_
*364 _070_
*365 _071_
*366 _072_
*367 _073_
*368 _074_
*369 _075_
*370 _076_
*371 _077_
*372 _078_
*373 _079_
*374 _080_
*375 _081_
*376 _082_
*377 _083_
*378 _084_
*379 _085_
*380 _086_
*381 _087_
*382 _088_
*383 _089_
*384 _090_
*385 _091_
*386 _092_
*387 _093_
*388 _094_
*389 _095_
*390 _096_
*391 _097_
*392 _098_
*393 _099_
*394 _100_
*395 _101_
*396 _102_
*397 _103_
*398 _104_
*399 _105_
*400 _106_
*401 _107_
*402 _108_
*403 _109_
*404 _113_
*405 _114_
*406 _115_
*407 _116_
*408 _117_
*409 _118_
*410 _119_
*411 _120_
*412 _121_
*413 _122_
*414 _123_
*415 _124_
*416 _125_
*417 _126_
*418 _127_
*419 _128_
*420 _129_
*421 _130_
*422 _131_
*423 _131__42
*424 _132_
*425 _133_
*426 _134_
*427 _135_
*428 _136_
*429 _137_
*430 _138_
*431 _139_
*432 _140_
*433 _141_
*434 _142_
*435 _143_
*436 _144_
*437 _144__43
*438 _145_
*439 _146_
*440 _147_
*441 _148_
*442 _149_
*443 _150_
*444 _151_
*445 _152_
*446 _153_
*447 _154_
*448 _155_
*449 _155__44
*450 _156_
*451 _157_
*452 _158_
*453 clkbuf_0_prog_clk
*454 clkbuf_1_0__f_prog_clk
*455 clkbuf_1_1__f_prog_clk
*456 hold1
*457 hold2
*458 hold3
*459 hold4
*460 hold5
*461 hold6
*462 hold7
*463 input1
*464 input10
*465 input11
*466 input12
*467 input13
*468 input14
*469 input15
*470 input16
*471 input17
*472 input18
*473 input19
*474 input2
*475 input3
*476 input4
*477 input5
*478 input6
*479 input7
*480 input8
*481 input9
*482 output20
*483 output21
*484 output22
*485 output23
*486 output24
*487 output25
*488 output26
*489 output27
*490 output28
*491 output29
*492 output30
*493 output31
*494 output32
*495 output33
*496 output34
*497 output35
*498 output36
*499 output37
*500 output38
*501 output39
*502 output40
*503 output41

*PORTS
bottom_grid_top_width_0_height_0_subtile_0__pin_outpad_0_ O
ccff_head I
ccff_tail O
chanx_left_in[0] I
chanx_left_in[1] I
chanx_left_in[2] I
chanx_left_in[3] I
chanx_left_in[4] I
chanx_left_in[5] I
chanx_left_in[6] I
chanx_left_in[7] I
chanx_left_in[8] I
chanx_left_out[0] O
chanx_left_out[1] O
chanx_left_out[2] O
chanx_left_out[3] O
chanx_left_out[4] O
chanx_left_out[5] O
chanx_left_out[6] O
chanx_left_out[7] O
chanx_left_out[8] O
chanx_right_in[0] I
chanx_right_in[1] I
chanx_right_in[2] I
chanx_right_in[3] I
chanx_right_in[4] I
chanx_right_in[5] I
chanx_right_in[6] I
chanx_right_in[7] I
chanx_right_in[8] I
chanx_right_out[0] O
chanx_right_out[1] O
chanx_right_out[2] O
chanx_right_out[3] O
chanx_right_out[4] O
chanx_right_out[5] O
chanx_right_out[6] O
chanx_right_out[7] O
chanx_right_out[8] O
prog_clk I
top_grid_bottom_width_0_height_0_subtile_0__pin_I_2_ O
top_grid_bottom_width_0_height_0_subtile_0__pin_I_6_ O

*D_NET *1 0.0013071
*CONN
*P bottom_grid_top_width_0_height_0_subtile_0__pin_outpad_0_ O
*I *482:X O *D sky130_fd_sc_hd__clkbuf_4
*CAP
1 bottom_grid_top_width_0_height_0_subtile_0__pin_outpad_0_ 0.000453309
2 *482:X 0.000453309
3 bottom_grid_top_width_0_height_0_subtile_0__pin_outpad_0_ *23:17 0.000400479
*RES
1 *482:X bottom_grid_top_width_0_height_0_subtile_0__pin_outpad_0_ 47.57 
*END

*D_NET *2 0.00255261
*CONN
*P ccff_head I
*I *463:A I *D sky130_fd_sc_hd__clkbuf_1
*CAP
1 ccff_head 0.0010717
2 *463:A 0
3 *2:15 0.0010717
4 *2:15 ccff_tail 6.12504e-05
5 *2:15 chanx_left_out[8] 0.000271364
6 *2:15 top_grid_bottom_width_0_height_0_subtile_0__pin_I_2_ 0
7 *2:15 *491:A 7.30675e-05
8 *2:15 *30:17 0
9 *2:15 *133:10 3.52233e-06
*RES
1 ccff_head *2:15 33.2855 
2 *2:15 *463:A 23 
*END

*D_NET *3 0.00327474
*CONN
*P ccff_tail O
*I *483:X O *D sky130_fd_sc_hd__clkbuf_4
*CAP
1 ccff_tail 0.00102659
2 *483:X 0.00030178
3 *3:8 0.00132837
4 ccff_tail chanx_left_out[8] 0
5 ccff_tail top_grid_bottom_width_0_height_0_subtile_0__pin_I_2_ 0
6 ccff_tail *133:10 8.62783e-05
7 ccff_tail *146:8 4.42688e-05
8 ccff_tail *157:12 0
9 *3:8 *42:8 1.76557e-05
10 *3:8 *157:12 0.000408549
11 *2:15 ccff_tail 6.12504e-05
*RES
1 *483:X *3:8 42.9093 
2 *3:8 ccff_tail 20.7595 
*END

*D_NET *4 0.000806761
*CONN
*P chanx_left_in[0] I
*I *474:A I *D sky130_fd_sc_hd__buf_1
*CAP
1 chanx_left_in[0] 0.00040338
2 *474:A 0.00040338
3 *474:A *5:13 0
4 *474:A *40:13 0
5 *474:A *147:10 0
6 *474:A *173:12 0
*RES
1 chanx_left_in[0] *474:A 49.0786 
*END

*D_NET *5 0.000724411
*CONN
*P chanx_left_in[1] I
*I *475:A I *D sky130_fd_sc_hd__buf_1
*CAP
1 chanx_left_in[1] 0.000362206
2 *475:A 0
3 *5:13 0.000362206
4 *5:13 *6:13 0
5 *5:13 *156:8 0
6 *474:A *5:13 0
*RES
1 chanx_left_in[1] *5:13 28.6417 
2 *5:13 *475:A 23 
*END

*D_NET *6 0.000724411
*CONN
*P chanx_left_in[2] I
*I *476:A I *D sky130_fd_sc_hd__buf_1
*CAP
1 chanx_left_in[2] 0.000362206
2 *476:A 0
3 *6:13 0.000362206
4 *6:13 *7:13 0
5 *6:13 *137:14 0
6 *6:13 *156:8 0
7 *5:13 *6:13 0
*RES
1 chanx_left_in[2] *6:13 28.6417 
2 *6:13 *476:A 23 
*END

*D_NET *7 0.000736381
*CONN
*P chanx_left_in[3] I
*I *477:A I *D sky130_fd_sc_hd__clkbuf_1
*CAP
1 chanx_left_in[3] 0.000368191
2 *477:A 0
3 *7:13 0.000368191
4 *7:13 *478:A 0
5 *7:13 *137:14 0
6 *7:13 *167:8 0
7 *6:13 *7:13 0
*RES
1 chanx_left_in[3] *7:13 28.6417 
2 *7:13 *477:A 23 
*END

*D_NET *8 0.000729001
*CONN
*P chanx_left_in[4] I
*I *478:A I *D sky130_fd_sc_hd__buf_1
*CAP
1 chanx_left_in[4] 0.000364501
2 *478:A 0.000364501
3 *478:A *479:A 0
4 *478:A *137:14 0
5 *7:13 *478:A 0
*RES
1 chanx_left_in[4] *478:A 49.5439 
*END

*D_NET *9 0.000745382
*CONN
*P chanx_left_in[5] I
*I *479:A I *D sky130_fd_sc_hd__clkbuf_1
*CAP
1 chanx_left_in[5] 0.000372691
2 *479:A 0.000372691
3 *479:A *480:A 0
4 *479:A *137:14 0
5 *478:A *479:A 0
*RES
1 chanx_left_in[5] *479:A 48.4452 
*END

*D_NET *10 0.000551287
*CONN
*P chanx_left_in[6] I
*I *480:A I *D sky130_fd_sc_hd__buf_1
*CAP
1 chanx_left_in[6] 0.000275167
2 *480:A 0.000275167
3 *480:A chanx_left_out[0] 0
4 *480:A *11:15 9.51819e-07
5 *480:A *137:14 0
6 *479:A *480:A 0
*RES
1 chanx_left_in[6] *480:A 49.5289 
*END

*D_NET *11 0.00168926
*CONN
*P chanx_left_in[7] I
*I *481:A I *D sky130_fd_sc_hd__clkbuf_1
*CAP
1 chanx_left_in[7] 0.000755661
2 *481:A 0
3 *11:15 0.000755661
4 *11:15 chanx_left_out[1] 4.75704e-05
5 *11:15 *12:21 0
6 *11:15 *137:14 0.000129412
7 *11:15 *138:16 0
8 *480:A *11:15 9.51819e-07
*RES
1 chanx_left_in[7] *11:15 28.9605 
2 *11:15 *481:A 23 
*END

*D_NET *12 0.00360644
*CONN
*P chanx_left_in[8] I
*I *464:A I *D sky130_fd_sc_hd__buf_1
*CAP
1 chanx_left_in[8] 0.00138111
2 *464:A 0
3 *12:21 0.00138111
4 *12:21 chanx_left_out[1] 0
5 *12:21 chanx_left_out[2] 0.000544506
6 *12:21 *124:8 0.000255998
7 *12:21 *138:16 4.37179e-05
8 *12:21 *139:8 0
9 *11:15 *12:21 0
*RES
1 chanx_left_in[8] *12:21 42.0971 
2 *12:21 *464:A 23 
*END

*D_NET *13 0.00113043
*CONN
*P chanx_left_out[0] O
*I *484:X O *D sky130_fd_sc_hd__clkbuf_4
*CAP
1 chanx_left_out[0] 0.000565216
2 *484:X 0.000565216
3 *480:A chanx_left_out[0] 0
*RES
1 *484:X chanx_left_out[0] 49.3514 
*END

*D_NET *14 0.000953015
*CONN
*P chanx_left_out[1] O
*I *485:X O *D sky130_fd_sc_hd__clkbuf_4
*CAP
1 chanx_left_out[1] 0.000452722
2 *485:X 0.000452722
3 *11:15 chanx_left_out[1] 4.75704e-05
4 *12:21 chanx_left_out[1] 0
*RES
1 *485:X chanx_left_out[1] 46.9693 
*END

*D_NET *15 0.00117813
*CONN
*P chanx_left_out[2] O
*I *486:X O *D sky130_fd_sc_hd__clkbuf_4
*CAP
1 chanx_left_out[2] 0.000316813
2 *486:X 0.000316813
3 *12:21 chanx_left_out[2] 0.000544506
*RES
1 *486:X chanx_left_out[2] 46.9693 
*END

*D_NET *16 0.000866299
*CONN
*P chanx_left_out[3] O
*I *487:X O *D sky130_fd_sc_hd__clkbuf_4
*CAP
1 chanx_left_out[3] 0.00043315
2 *487:X 0.00043315
*RES
1 *487:X chanx_left_out[3] 46.9693 
*END

*D_NET *17 0.000878206
*CONN
*P chanx_left_out[4] O
*I *488:X O *D sky130_fd_sc_hd__clkbuf_4
*CAP
1 chanx_left_out[4] 0.000439103
2 *488:X 0.000439103
*RES
1 *488:X chanx_left_out[4] 46.9693 
*END

*D_NET *18 0.00109129
*CONN
*P chanx_left_out[5] O
*I *489:X O *D sky130_fd_sc_hd__clkbuf_4
*CAP
1 chanx_left_out[5] 4.62279e-05
2 *489:X 0.000499417
3 *18:14 0.000545645
4 *18:14 chanx_left_out[6] 0
*RES
1 *489:X *18:14 49.4654 
2 *18:14 chanx_left_out[5] 1.39821 
*END

*D_NET *19 0.000877935
*CONN
*P chanx_left_out[6] O
*I *490:X O *D sky130_fd_sc_hd__clkbuf_4
*CAP
1 chanx_left_out[6] 0.000438968
2 *490:X 0.000438968
3 *18:14 chanx_left_out[6] 0
*RES
1 *490:X chanx_left_out[6] 46.9693 
*END

*D_NET *20 0.000866299
*CONN
*P chanx_left_out[7] O
*I *491:X O *D sky130_fd_sc_hd__clkbuf_4
*CAP
1 chanx_left_out[7] 0.00043315
2 *491:X 0.00043315
*RES
1 *491:X chanx_left_out[7] 46.9693 
*END

*D_NET *21 0.00135378
*CONN
*P chanx_left_out[8] O
*I *492:X O *D sky130_fd_sc_hd__clkbuf_4
*CAP
1 chanx_left_out[8] 0.000519113
2 *492:X 0.000519113
3 chanx_left_out[8] *491:A 6.17437e-06
4 chanx_left_out[8] *123:10 8.06804e-06
5 chanx_left_out[8] *133:10 2.99492e-05
6 ccff_tail chanx_left_out[8] 0
7 *2:15 chanx_left_out[8] 0.000271364
*RES
1 *492:X chanx_left_out[8] 49.3514 
*END

*D_NET *22 0.00353437
*CONN
*P chanx_right_in[0] I
*I *465:A I *D sky130_fd_sc_hd__buf_1
*CAP
1 chanx_right_in[0] 0.00168353
2 *465:A 0
3 *22:11 0.00168353
4 *22:11 chanx_right_out[6] 0
5 *22:11 chanx_right_out[7] 0
6 *22:11 *344:A 0
7 *22:11 *23:17 0
8 *22:11 *95:32 0
9 *22:11 *96:12 6.07611e-06
10 *22:11 *127:51 0
11 *22:11 *154:30 0.00016124
*RES
1 chanx_right_in[0] *22:11 40.5602 
2 *22:11 *465:A 23 
*END

*D_NET *23 0.0025431
*CONN
*P chanx_right_in[1] I
*I *466:A I *D sky130_fd_sc_hd__buf_1
*CAP
1 chanx_right_in[1] 0.000733542
2 *466:A 0
3 *23:17 0.000733542
4 *23:17 chanx_right_out[8] 7.44354e-05
5 *23:17 *482:A 0.000108681
6 *23:17 *24:15 0
7 *23:17 *77:12 0.000318178
8 *23:17 *96:42 5.79559e-05
9 *23:17 *122:30 0.000116285
10 *23:17 *155:24 0
11 bottom_grid_top_width_0_height_0_subtile_0__pin_outpad_0_ *23:17 0.000400479
12 *22:11 *23:17 0
*RES
1 chanx_right_in[1] *23:17 36.5433 
2 *23:17 *466:A 23 
*END

*D_NET *24 0.00555673
*CONN
*P chanx_right_in[2] I
*I *467:A I *D sky130_fd_sc_hd__buf_1
*CAP
1 chanx_right_in[2] 0.00224428
2 *467:A 0
3 *24:15 0.00224428
4 *24:15 *25:15 0
5 *24:15 *40:13 0.000277576
6 *24:15 *122:30 0.000690233
7 *24:15 *127:51 7.98175e-05
8 *24:15 *154:30 2.05503e-05
9 *23:17 *24:15 0
*RES
1 chanx_right_in[2] *24:15 35.6155 
2 *24:15 *467:A 23 
*END

*D_NET *25 0.00668717
*CONN
*P chanx_right_in[3] I
*I *468:A I *D sky130_fd_sc_hd__clkbuf_1
*CAP
1 chanx_right_in[3] 0.00196791
2 *468:A 0
3 *25:27 0.000216702
4 *25:15 0.00218461
5 *25:15 *345:A 0.000102417
6 *25:15 *400:D 0.00057176
7 *25:15 *438:A 6.20123e-05
8 *25:15 *440:TE_B 5.56279e-05
9 *25:15 *446:TE_B 5.3304e-05
10 *25:15 *26:17 0
11 *25:15 *53:18 0.000905124
12 *25:15 *73:10 1.88972e-05
13 *25:15 *96:12 1.14452e-05
14 *25:15 *118:6 2.87766e-05
15 *25:15 *136:18 1.14452e-05
16 *25:15 *165:10 4.82774e-05
17 *25:27 *53:10 8.62783e-05
18 *25:27 *81:20 0.000110913
19 *25:27 *113:10 9.58714e-05
20 *25:27 *136:49 6.6426e-05
21 *25:27 *154:16 3.83498e-05
22 *25:27 *155:10 1.02387e-05
23 *25:27 *156:24 4.07902e-05
24 *24:15 *25:15 0
*RES
1 chanx_right_in[3] *25:15 40.1784 
2 *25:15 *25:27 35.075 
3 *25:27 *468:A 23 
*END

*D_NET *26 0.00107933
*CONN
*P chanx_right_in[4] I
*I *469:A I *D sky130_fd_sc_hd__buf_1
*CAP
1 chanx_right_in[4] 0.000519324
2 *469:A 0
3 *26:17 0.000519324
4 *26:17 *27:19 0
5 *26:17 *85:8 4.06849e-05
6 *26:17 *130:16 0
7 *25:15 *26:17 0
*RES
1 chanx_right_in[4] *26:17 29.5799 
2 *26:17 *469:A 23 
*END

*D_NET *27 0.00631396
*CONN
*P chanx_right_in[5] I
*I *470:A I *D sky130_fd_sc_hd__clkbuf_1
*CAP
1 chanx_right_in[5] 0.00256559
2 *470:A 0
3 *27:19 0.00256559
4 *27:19 *344:A 2.35393e-05
5 *27:19 *350:A 4.00259e-06
6 *27:19 *356:A 1.12349e-05
7 *27:19 *460:A 8.15864e-05
8 *27:19 *471:A 0
9 *27:19 *53:18 0
10 *27:19 *73:10 0.000151155
11 *27:19 *78:8 2.75849e-05
12 *27:19 *82:10 0
13 *27:19 *96:16 1.08287e-05
14 *27:19 *111:10 0.000136486
15 *27:19 *111:25 0.000260655
16 *27:19 *120:8 3.98887e-05
17 *27:19 *120:27 0.000192154
18 *27:19 *136:49 5.90675e-06
19 *27:19 *165:10 0.000182744
20 *27:19 *166:10 5.50106e-05
21 *26:17 *27:19 0
*RES
1 chanx_right_in[5] *27:19 48.742 
2 *27:19 *470:A 23 
*END

*D_NET *28 0.000679251
*CONN
*P chanx_right_in[6] I
*I *471:A I *D sky130_fd_sc_hd__buf_1
*CAP
1 chanx_right_in[6] 0.000336672
2 *471:A 0.000336672
3 *471:A *29:13 0
4 *471:A *130:16 0
5 *471:A *131:8 5.90675e-06
6 *27:19 *471:A 0
*RES
1 chanx_right_in[6] *471:A 49.2833 
*END

*D_NET *29 0.00231745
*CONN
*P chanx_right_in[7] I
*I *472:A I *D sky130_fd_sc_hd__clkbuf_1
*CAP
1 chanx_right_in[7] 0.00104949
2 *472:A 0
3 *29:13 0.00104949
4 *29:13 *30:17 0
5 *29:13 *123:10 7.39745e-05
6 *29:13 *142:10 0.000144501
7 *29:13 *158:10 0
8 *471:A *29:13 0
*RES
1 chanx_right_in[7] *29:13 29.2345 
2 *29:13 *472:A 23 
*END

*D_NET *30 0.00147744
*CONN
*P chanx_right_in[8] I
*I *473:A I *D sky130_fd_sc_hd__buf_1
*CAP
1 chanx_right_in[8] 0.000705221
2 *473:A 0
3 *30:17 0.000705221
4 *30:17 top_grid_bottom_width_0_height_0_subtile_0__pin_I_2_ 6.70017e-05
5 *30:17 top_grid_bottom_width_0_height_0_subtile_0__pin_I_6_ 0
6 *30:17 *157:12 0
7 *2:15 *30:17 0
8 *29:13 *30:17 0
*RES
1 chanx_right_in[8] *30:17 30.9324 
2 *30:17 *473:A 23 
*END

*D_NET *31 0.00110939
*CONN
*P chanx_right_out[0] O
*I *493:X O *D sky130_fd_sc_hd__clkbuf_4
*CAP
1 chanx_right_out[0] 0.000554695
2 *493:X 0.000554695
*RES
1 *493:X chanx_right_out[0] 49.3514 
*END

*D_NET *32 0.00104803
*CONN
*P chanx_right_out[1] O
*I *494:X O *D sky130_fd_sc_hd__clkbuf_4
*CAP
1 chanx_right_out[1] 0.000504803
2 *494:X 0.000504803
3 chanx_right_out[1] *493:A 6.17437e-06
4 chanx_right_out[1] *494:A 3.22465e-05
*RES
1 *494:X chanx_right_out[1] 47.57 
*END

*D_NET *33 0.00105356
*CONN
*P chanx_right_out[2] O
*I *495:X O *D sky130_fd_sc_hd__clkbuf_4
*CAP
1 chanx_right_out[2] 0.000495946
2 *495:X 0.000495946
3 chanx_right_out[2] *495:A 5.41385e-05
4 chanx_right_out[2] *40:13 0
5 chanx_right_out[2] *150:14 7.53384e-06
*RES
1 *495:X chanx_right_out[2] 47.57 
*END

*D_NET *34 0.00092663
*CONN
*P chanx_right_out[3] O
*I *496:X O *D sky130_fd_sc_hd__clkbuf_4
*CAP
1 chanx_right_out[3] 0.000463315
2 *496:X 0.000463315
3 chanx_right_out[3] *40:13 0
*RES
1 *496:X chanx_right_out[3] 47.57 
*END

*D_NET *35 0.000836731
*CONN
*P chanx_right_out[4] O
*I *497:X O *D sky130_fd_sc_hd__clkbuf_4
*CAP
1 chanx_right_out[4] 0.000383938
2 *497:X 0.000383938
3 chanx_right_out[4] chanx_right_out[5] 0
4 chanx_right_out[4] *155:10 6.88552e-05
*RES
1 *497:X chanx_right_out[4] 47.1143 
*END

*D_NET *36 0.00119064
*CONN
*P chanx_right_out[5] O
*I *498:X O *D sky130_fd_sc_hd__clkbuf_4
*CAP
1 chanx_right_out[5] 0.000334546
2 *498:X 0.000241583
3 *36:8 0.000576129
4 chanx_right_out[5] *155:18 0
5 *36:8 chanx_right_out[6] 0
6 *36:8 *135:10 3.83778e-05
7 chanx_right_out[4] chanx_right_out[5] 0
*RES
1 *498:X *36:8 42.7229 
2 *36:8 chanx_right_out[5] 36.8979 
*END

*D_NET *37 0.00116509
*CONN
*P chanx_right_out[6] O
*I *499:X O *D sky130_fd_sc_hd__clkbuf_4
*CAP
1 chanx_right_out[6] 0.000547572
2 *499:X 0.000547572
3 chanx_right_out[6] *499:A 5.40337e-05
4 chanx_right_out[6] *122:30 1.59071e-05
5 *22:11 chanx_right_out[6] 0
6 *36:8 chanx_right_out[6] 0
*RES
1 *499:X chanx_right_out[6] 47.57 
*END

*D_NET *38 0.00111162
*CONN
*P chanx_right_out[7] O
*I *500:X O *D sky130_fd_sc_hd__clkbuf_4
*CAP
1 chanx_right_out[7] 0.000498476
2 *500:X 0.000498476
3 chanx_right_out[7] *77:12 1.55555e-05
4 chanx_right_out[7] *154:30 9.91101e-05
5 *22:11 chanx_right_out[7] 0
*RES
1 *500:X chanx_right_out[7] 47.57 
*END

*D_NET *39 0.00111486
*CONN
*P chanx_right_out[8] O
*I *501:X O *D sky130_fd_sc_hd__clkbuf_4
*CAP
1 chanx_right_out[8] 0.000495397
2 *501:X 0.000495397
3 chanx_right_out[8] *155:24 4.96264e-05
4 *23:17 chanx_right_out[8] 7.44354e-05
*RES
1 *501:X chanx_right_out[8] 47.57 
*END

*D_NET *40 0.00799563
*CONN
*P prog_clk I
*I *453:A I *D sky130_fd_sc_hd__clkbuf_16
*CAP
1 prog_clk 0.00216458
2 *453:A 0
3 *40:19 0.00056199
4 *40:13 0.00272657
5 *40:13 *127:24 9.91101e-05
6 *40:13 *127:51 1.83618e-05
7 *40:13 *150:14 0.000242849
8 *40:13 *151:12 3.16784e-05
9 *40:19 *81:10 0
10 *40:19 *88:50 0.000791638
11 *40:19 *114:10 6.33614e-05
12 *40:19 *152:18 0.00101791
13 chanx_right_out[2] *40:13 0
14 chanx_right_out[3] *40:13 0
15 *474:A *40:13 0
16 *24:15 *40:13 0.000277576
*RES
1 prog_clk *40:13 48.6027 
2 *40:13 *40:19 45.6393 
3 *40:19 *453:A 23 
*END

*D_NET *41 0.00129489
*CONN
*P top_grid_bottom_width_0_height_0_subtile_0__pin_I_2_ O
*I *502:X O *D sky130_fd_sc_hd__clkbuf_4
*CAP
1 top_grid_bottom_width_0_height_0_subtile_0__pin_I_2_ 0.000597383
2 *502:X 0.000597383
3 top_grid_bottom_width_0_height_0_subtile_0__pin_I_2_ *157:12 3.3123e-05
4 ccff_tail top_grid_bottom_width_0_height_0_subtile_0__pin_I_2_ 0
5 *2:15 top_grid_bottom_width_0_height_0_subtile_0__pin_I_2_ 0
6 *30:17 top_grid_bottom_width_0_height_0_subtile_0__pin_I_2_ 6.70017e-05
*RES
1 *502:X top_grid_bottom_width_0_height_0_subtile_0__pin_I_2_ 49.455 
*END

*D_NET *42 0.00226337
*CONN
*P top_grid_bottom_width_0_height_0_subtile_0__pin_I_6_ O
*I *503:X O *D sky130_fd_sc_hd__clkbuf_4
*CAP
1 top_grid_bottom_width_0_height_0_subtile_0__pin_I_6_ 0.000597326
2 *503:X 0.000407769
3 *42:8 0.00100509
4 *42:8 *136:60 5.50106e-05
5 *42:8 *157:12 0.000180517
6 *3:8 *42:8 1.76557e-05
7 *30:17 top_grid_bottom_width_0_height_0_subtile_0__pin_I_6_ 0
*RES
1 *503:X *42:8 46.2443 
2 *42:8 top_grid_bottom_width_0_height_0_subtile_0__pin_I_6_ 12.6357 
*END

*D_NET *45 0.000201256
*CONN
*I *375:A I *D sky130_fd_sc_hd__clkbuf_1
*I *374:X O *D sky130_fd_sc_hd__clkbuf_1
*CAP
1 *375:A 3.63922e-05
2 *374:X 3.63922e-05
3 *375:A *427:Z 5.23699e-05
4 *375:A *69:10 1.76557e-05
5 *375:A *90:10 3.81946e-05
6 *375:A *90:19 2.02517e-05
*RES
1 *374:X *375:A 47.4707 
*END

*D_NET *46 0.00105537
*CONN
*I *377:A I *D sky130_fd_sc_hd__clkbuf_1
*I *376:X O *D sky130_fd_sc_hd__clkbuf_1
*CAP
1 *377:A 0.000324325
2 *376:X 7.97676e-05
3 *46:8 0.000404093
4 *377:A *364:A 5.79559e-05
5 *377:A *429:TE_B 9.00069e-05
6 *377:A *60:8 6.35658e-05
7 *46:8 *376:A 3.56537e-05
8 *46:8 *128:12 0
*RES
1 *376:X *46:8 39.5536 
2 *46:8 *377:A 43.8829 
*END

*D_NET *47 0.00143311
*CONN
*I *379:A I *D sky130_fd_sc_hd__clkbuf_1
*I *378:X O *D sky130_fd_sc_hd__clkbuf_1
*CAP
1 *379:A 0
2 *378:X 0.000501293
3 *47:10 0.000501293
4 *47:10 *91:68 0.000315775
5 *47:10 *92:14 4.23714e-05
6 *47:10 *106:27 6.22372e-05
7 *47:10 *152:18 1.01436e-05
*RES
1 *378:X *47:10 46.2443 
2 *47:10 *379:A 38 
*END

*D_NET *48 0.000531095
*CONN
*I *341:A I *D sky130_fd_sc_hd__clkbuf_1
*I *340:X O *D sky130_fd_sc_hd__clkbuf_1
*CAP
1 *341:A 0.00021039
2 *340:X 0.00021039
3 *341:A *339:A 5.79559e-05
4 *341:A *84:10 5.2359e-05
*RES
1 *340:X *341:A 49.9979 
*END

*D_NET *49 0.00143831
*CONN
*I *343:A I *D sky130_fd_sc_hd__clkbuf_1
*I *342:X O *D sky130_fd_sc_hd__clkbuf_1
*CAP
1 *343:A 0.000320729
2 *342:X 6.21663e-05
3 *49:8 0.000382895
4 *343:A *439:A 0
5 *343:A *83:10 0.000142636
6 *343:A *94:12 0.000123621
7 *343:A *94:19 5.56279e-05
8 *343:A *94:42 0.0003073
9 *49:8 *398:CLK 4.334e-05
10 *49:8 *94:29 0
*RES
1 *342:X *49:8 39.2014 
2 *49:8 *343:A 46.1407 
*END

*D_NET *50 0.000200484
*CONN
*I *348:A I *D sky130_fd_sc_hd__clkbuf_1
*I *347:X O *D sky130_fd_sc_hd__clkbuf_1
*CAP
1 *348:A 3.78875e-05
2 *347:X 3.78875e-05
3 *348:A *347:A 6.67527e-05
4 *348:A *454:A 5.79559e-05
*RES
1 *347:X *348:A 47.4707 
*END

*D_NET *51 0.000205219
*CONN
*I *350:A I *D sky130_fd_sc_hd__clkbuf_1
*I *349:X O *D sky130_fd_sc_hd__clkbuf_1
*CAP
1 *350:A 4.60727e-05
2 *349:X 4.60727e-05
3 *350:A *356:A 0
4 *350:A *96:16 5.4066e-05
5 *350:A *96:18 0
6 *350:A *136:49 5.50049e-05
7 *27:19 *350:A 4.00259e-06
*RES
1 *349:X *350:A 47.4707 
*END

*D_NET *52 0.000724126
*CONN
*I *353:A I *D sky130_fd_sc_hd__clkbuf_1
*I *352:X O *D sky130_fd_sc_hd__clkbuf_1
*CAP
1 *353:A 0
2 *352:X 0.000114293
3 *52:12 0.000114293
4 *52:12 *351:A 0.000100803
5 *52:12 *81:10 0.000104475
6 *52:12 *95:32 5.90675e-06
7 *52:12 *136:49 0.000182802
8 *52:12 *154:16 0.000101554
*RES
1 *352:X *52:12 27.6193 
2 *52:12 *353:A 23 
*END

*D_NET *53 0.00652733
*CONN
*I *355:A I *D sky130_fd_sc_hd__clkbuf_1
*I *354:X O *D sky130_fd_sc_hd__clkbuf_1
*CAP
1 *355:A 0
2 *354:X 0.000194118
3 *53:28 0.000565521
4 *53:18 0.00171745
5 *53:10 0.00134605
6 *53:10 *127:24 3.81658e-05
7 *53:10 *154:16 9.84851e-05
8 *53:10 *155:10 0.000106609
9 *53:18 *345:A 0.000156444
10 *53:18 *446:TE_B 2.02872e-05
11 *53:18 *82:10 4.84045e-05
12 *53:18 *95:46 0
13 *53:18 *96:12 2.76611e-06
14 *53:18 *111:10 0
15 *53:18 *115:10 0.000164291
16 *53:18 *125:8 0.000213551
17 *53:18 *129:18 1.14452e-05
18 *53:18 *172:42 0
19 *53:28 *450:TE_B 1.32314e-05
20 *53:28 *450:Z 0.000141954
21 *53:28 *454:A 0.000114152
22 *53:28 *455:A 4.34745e-05
23 *53:28 *89:8 4.96717e-05
24 *53:28 *129:6 0.000489854
25 *25:15 *53:18 0.000905124
26 *25:27 *53:10 8.62783e-05
27 *27:19 *53:18 0
*RES
1 *354:X *53:10 42.06 
2 *53:10 *53:18 49.575 
3 *53:18 *53:28 28.195 
4 *53:28 *355:A 23 
*END

*D_NET *54 0.00154588
*CONN
*I *359:A I *D sky130_fd_sc_hd__clkbuf_1
*I *358:X O *D sky130_fd_sc_hd__clkbuf_1
*CAP
1 *359:A 6.11951e-05
2 *358:X 0.000461299
3 *54:14 0.000522494
4 *359:A *74:8 4.84129e-06
5 *54:14 *358:A 6.17437e-06
6 *54:14 *95:12 0.00037403
7 *54:14 *126:24 0.000115852
*RES
1 *358:X *54:14 47.4043 
2 *54:14 *359:A 39.0979 
*END

*D_NET *55 0.00215172
*CONN
*I *361:A I *D sky130_fd_sc_hd__clkbuf_1
*I *360:X O *D sky130_fd_sc_hd__clkbuf_1
*CAP
1 *361:A 0.000214518
2 *360:X 0.00048574
3 *55:10 0.000700259
4 *361:A *436:A 9.41704e-05
5 *361:A *436:TE_B 4.05745e-05
6 *361:A *74:8 1.57571e-05
7 *55:10 *442:TE_B 2.03256e-05
8 *55:10 *77:12 0.000124169
9 *55:10 *78:16 0.00017677
10 *55:10 *122:30 0.000142636
11 *55:10 *126:12 2.81216e-05
12 *55:10 *130:16 0
13 *55:10 *136:18 0
14 *55:10 *136:60 0
15 *55:10 *166:10 0.000108681
*RES
1 *360:X *55:10 47.4664 
2 *55:10 *361:A 41.48 
*END

*D_NET *56 0.000505253
*CONN
*I *366:A I *D sky130_fd_sc_hd__clkbuf_1
*I *365:X O *D sky130_fd_sc_hd__clkbuf_1
*CAP
1 *366:A 0
2 *365:X 0.000179205
3 *56:10 0.000179205
4 *56:10 *91:25 3.36312e-06
5 *56:10 *91:35 6.87115e-06
6 *56:10 *172:20 0.000136609
*RES
1 *365:X *56:10 41.0036 
2 *56:10 *366:A 38 
*END

*D_NET *57 0.00112947
*CONN
*I *369:A I *D sky130_fd_sc_hd__clkbuf_1
*I *368:X O *D sky130_fd_sc_hd__clkbuf_1
*CAP
1 *369:A 0.000332512
2 *368:X 4.45717e-05
3 *57:8 0.000377084
4 *369:A *426:A 9.24426e-05
5 *369:A *62:10 4.27248e-05
6 *369:A *90:35 6.53382e-05
7 *57:8 *99:10 8.62783e-05
8 *57:8 *100:10 8.85189e-05
*RES
1 *368:X *57:8 39.2014 
2 *57:8 *369:A 43.7793 
*END

*D_NET *58 0.000255877
*CONN
*I *371:A I *D sky130_fd_sc_hd__clkbuf_1
*I *370:X O *D sky130_fd_sc_hd__clkbuf_1
*CAP
1 *371:A 7.14403e-05
2 *370:X 7.14403e-05
3 *371:A *362:A 0.000112997
*RES
1 *370:X *371:A 47.9471 
*END

*D_NET *59 0.000448005
*CONN
*I *422:TE_B I *D sky130_fd_sc_hd__ebufn_1
*I *379:X O *D sky130_fd_sc_hd__clkbuf_1
*CAP
1 *422:TE_B 0
2 *379:X 0.000118756
3 *59:10 0.000118756
4 *59:10 *427:A 2.93845e-05
5 *59:10 *102:10 4.23817e-05
6 *59:10 *106:27 0.000138727
*RES
1 *379:X *59:10 40.5271 
2 *59:10 *422:TE_B 38 
*END

*D_NET *60 0.00128546
*CONN
*I *424:TE_B I *D sky130_fd_sc_hd__ebufn_1
*I *377:X O *D sky130_fd_sc_hd__clkbuf_1
*CAP
1 *424:TE_B 0
2 *377:X 0.000403445
3 *60:8 0.000403445
4 *60:8 *429:TE_B 0.000227937
5 *60:8 *103:6 0.000187069
6 *377:A *60:8 6.35658e-05
*RES
1 *377:X *60:8 31.265 
2 *60:8 *424:TE_B 23 
*END

*D_NET *61 0.000294738
*CONN
*I *425:TE_B I *D sky130_fd_sc_hd__ebufn_1