*SPEF "ieee 1481-1999"
*DESIGN "cbx_1__1_"
*DATE "11:11:11 Fri 11 11, 1111"
*VENDOR "OpenRCX"
*PROGRAM "Parallel Extraction"
*VERSION "1.0"
*DESIGN_FLOW "NAME_SCOPE LOCAL" "PIN_CAP NONE"
*DIVIDER /
*DELIMITER :
*BUS_DELIMITER []
*T_UNIT 1 NS
*C_UNIT 1 PF
*R_UNIT 1 OHM
*L_UNIT 1 HENRY

*NAME_MAP
*1 bottom_grid_top_width_0_height_0_subtile_0__pin_I_0_
*2 bottom_grid_top_width_0_height_0_subtile_0__pin_I_4_
*3 bottom_grid_top_width_0_height_0_subtile_0__pin_I_8_
*4 ccff_head
*5 ccff_tail
*6 chanx_left_in[0]
*7 chanx_left_in[1]
*8 chanx_left_in[2]
*9 chanx_left_in[3]
*10 chanx_left_in[4]
*11 chanx_left_in[5]
*12 chanx_left_in[6]
*13 chanx_left_in[7]
*14 chanx_left_in[8]
*15 chanx_left_out[0]
*16 chanx_left_out[1]
*17 chanx_left_out[2]
*18 chanx_left_out[3]
*19 chanx_left_out[4]
*20 chanx_left_out[5]
*21 chanx_left_out[6]
*22 chanx_left_out[7]
*23 chanx_left_out[8]
*24 chanx_right_in[0]
*25 chanx_right_in[1]
*26 chanx_right_in[2]
*27 chanx_right_in[3]
*28 chanx_right_in[4]
*29 chanx_right_in[5]
*30 chanx_right_in[6]
*31 chanx_right_in[7]
*32 chanx_right_in[8]
*33 chanx_right_out[0]
*34 chanx_right_out[1]
*35 chanx_right_out[2]
*36 chanx_right_out[3]
*37 chanx_right_out[4]
*38 chanx_right_out[5]
*39 chanx_right_out[6]
*40 chanx_right_out[7]
*41 chanx_right_out[8]
*42 prog_clk
*43 top_grid_bottom_width_0_height_0_subtile_0__pin_I_2_
*44 top_grid_bottom_width_0_height_0_subtile_0__pin_I_6_
*47 _000_
*48 _001_
*49 _002_
*50 _003_
*51 _004_
*52 _005_
*53 _006_
*54 _007_
*55 _008_
*56 _009_
*57 _010_
*58 _011_
*59 _012_
*60 _013_
*61 _014_
*62 _015_
*63 _016_
*64 _017_
*65 _018_
*66 _019_
*67 _020_
*68 _021_
*69 _022_
*70 _023_
*71 _024_
*72 _025_
*73 _026_
*74 _027_
*75 _028_
*76 _029_
*77 _030_
*78 _031_
*79 _032_
*80 _033_
*81 _034_
*82 _035_
*83 _036_
*84 _037_
*85 _038_
*86 _039_
*87 _040_
*88 _041_
*89 _042_
*90 _043_
*91 _044_
*92 _045_
*93 _046_
*94 _047_
*95 _048_
*96 _049_
*97 _050_
*98 _051_
*99 _052_
*100 _053_
*101 clknet_0_prog_clk
*102 clknet_1_0__leaf_prog_clk
*103 clknet_1_1__leaf_prog_clk
*104 mem_bottom_ipin_0\.DFF_0_\.Q
*105 mem_bottom_ipin_0\.DFF_1_\.Q
*106 mem_bottom_ipin_0\.DFF_2_\.Q
*107 mem_bottom_ipin_1\.DFF_0_\.Q
*108 mem_bottom_ipin_1\.DFF_1_\.Q
*109 mem_top_ipin_0\.DFF_0_\.Q
*110 mem_top_ipin_0\.DFF_1_\.Q
*111 mem_top_ipin_0\.DFF_2_\.Q
*112 mem_top_ipin_1\.DFF_0_\.Q
*113 mem_top_ipin_1\.DFF_1_\.Q
*114 mem_top_ipin_2\.DFF_0_\.Q
*115 mux_bottom_ipin_0\.INVTX1_0_\.out
*116 mux_bottom_ipin_0\.INVTX1_1_\.out
*117 mux_bottom_ipin_0\.INVTX1_2_\.out
*118 mux_bottom_ipin_0\.INVTX1_3_\.out
*119 mux_bottom_ipin_0\.INVTX1_4_\.out
*120 mux_bottom_ipin_0\.INVTX1_5_\.out
*121 mux_bottom_ipin_0\.mux_l1_in_0_\.TGATE_0_\.out
*122 mux_bottom_ipin_0\.mux_l1_in_1_\.TGATE_0_\.out
*123 mux_bottom_ipin_0\.mux_l1_in_2_\.TGATE_0_\.out
*124 mux_bottom_ipin_0\.mux_l2_in_0_\.TGATE_0_\.out
*125 mux_bottom_ipin_0\.mux_l2_in_1_\.TGATE_0_\.out
*126 mux_bottom_ipin_0\.mux_l3_in_0_\.TGATE_0_\.out
*127 mux_bottom_ipin_1\.INVTX1_0_\.out
*128 mux_bottom_ipin_1\.INVTX1_1_\.out
*129 mux_bottom_ipin_1\.mux_l1_in_0_\.TGATE_0_\.out
*130 mux_bottom_ipin_1\.mux_l2_in_0_\.TGATE_0_\.out
*131 mux_top_ipin_0\.INVTX1_2_\.out
*132 mux_top_ipin_0\.INVTX1_3_\.out
*133 mux_top_ipin_0\.INVTX1_4_\.out
*134 mux_top_ipin_0\.INVTX1_5_\.out
*135 mux_top_ipin_0\.mux_l1_in_0_\.TGATE_0_\.out
*136 mux_top_ipin_0\.mux_l1_in_1_\.TGATE_0_\.out
*137 mux_top_ipin_0\.mux_l1_in_2_\.TGATE_0_\.out
*138 mux_top_ipin_0\.mux_l2_in_0_\.TGATE_0_\.out
*139 mux_top_ipin_0\.mux_l2_in_1_\.TGATE_0_\.out
*140 mux_top_ipin_0\.mux_l3_in_0_\.TGATE_0_\.out
*141 mux_top_ipin_1\.INVTX1_0_\.out
*142 mux_top_ipin_1\.INVTX1_1_\.out
*143 mux_top_ipin_1\.mux_l1_in_0_\.TGATE_0_\.out
*144 mux_top_ipin_1\.mux_l2_in_0_\.TGATE_0_\.out
*145 mux_top_ipin_2\.mux_l1_in_0_\.TGATE_0_\.out
*146 mux_top_ipin_2\.mux_l2_in_0_\.TGATE_0_\.out
*147 net1
*148 net10
*149 net11
*150 net12
*151 net13
*152 net14
*153 net15
*154 net16
*155 net17
*156 net18
*157 net19
*158 net2
*159 net20
*160 net21
*161 net22
*162 net23
*163 net24
*164 net25
*165 net26
*166 net27
*167 net28
*168 net29
*169 net3
*170 net30
*171 net31
*172 net32
*173 net33
*174 net34
*175 net35
*176 net36
*177 net37
*178 net38
*179 net39
*180 net4
*181 net40
*182 net41
*183 net42
*184 net43
*185 net44
*186 net45
*187 net46
*188 net47
*189 net48
*190 net49
*191 net5
*192 net50
*193 net51
*194 net52
*195 net53
*196 net54
*197 net55
*198 net56
*199 net57
*200 net58
*201 net59
*202 net6
*203 net7
*204 net8
*205 net9
*206 ANTENNA_1
*207 FILLER_0_0_102
*208 FILLER_0_0_3
*209 FILLER_0_0_55
*210 FILLER_0_0_72
*211 FILLER_0_0_82
*212 FILLER_0_0_91
*213 FILLER_0_10_101
*214 FILLER_0_10_16
*215 FILLER_0_10_29
*216 FILLER_0_10_3
*217 FILLER_0_10_41
*218 FILLER_0_10_53
*219 FILLER_0_10_70
*220 FILLER_0_10_8
*221 FILLER_0_10_83
*222 FILLER_0_11_101
*223 FILLER_0_11_18
*224 FILLER_0_11_30
*225 FILLER_0_11_42
*226 FILLER_0_11_54
*227 FILLER_0_11_57
*228 FILLER_0_11_6
*229 FILLER_0_11_66
*230 FILLER_0_11_73
*231 FILLER_0_11_94
*232 FILLER_0_12_13
*233 FILLER_0_12_25
*234 FILLER_0_12_29
*235 FILLER_0_12_33
*236 FILLER_0_12_37
*237 FILLER_0_12_48
*238 FILLER_0_12_57
*239 FILLER_0_12_6
*240 FILLER_0_12_83
*241 FILLER_0_13_18
*242 FILLER_0_13_26
*243 FILLER_0_13_29
*244 FILLER_0_13_37
*245 FILLER_0_13_41
*246 FILLER_0_13_48
*247 FILLER_0_13_52
*248 FILLER_0_13_63
*249 FILLER_0_13_73
*250 FILLER_0_13_85
*251 FILLER_0_13_95
*252 FILLER_0_1_15
*253 FILLER_0_1_36
*254 FILLER_0_1_54
*255 FILLER_0_1_95
*256 FILLER_0_2_3
*257 FILLER_0_2_52
*258 FILLER_0_2_63
*259 FILLER_0_2_83
*260 FILLER_0_2_9
*261 FILLER_0_3_3
*262 FILLER_0_3_42
*263 FILLER_0_3_52
*264 FILLER_0_3_65
*265 FILLER_0_3_74
*266 FILLER_0_3_95
*267 FILLER_0_4_29
*268 FILLER_0_4_50
*269 FILLER_0_4_99
*270 FILLER_0_5_27
*271 FILLER_0_5_46
*272 FILLER_0_5_68
*273 FILLER_0_5_9
*274 FILLER_0_6_101
*275 FILLER_0_6_3
*276 FILLER_0_6_74
*277 FILLER_0_6_83
*278 FILLER_0_7_60
*279 FILLER_0_7_68
*280 FILLER_0_7_89
*281 FILLER_0_7_99
*282 FILLER_0_8_102
*283 FILLER_0_8_23
*284 FILLER_0_8_3
*285 FILLER_0_8_40
*286 FILLER_0_8_63
*287 FILLER_0_8_77
*288 FILLER_0_9_102
*289 FILLER_0_9_27
*290 FILLER_0_9_31
*291 FILLER_0_9_35
*292 FILLER_0_9_41
*293 FILLER_0_9_45
*294 FILLER_0_9_49
*295 FILLER_0_9_6
*296 FILLER_0_9_68
*297 PHY_0
*298 PHY_1
*299 PHY_10
*300 PHY_11
*301 PHY_12
*302 PHY_13
*303 PHY_14
*304 PHY_15
*305 PHY_16
*306 PHY_17
*307 PHY_18
*308 PHY_19
*309 PHY_2
*310 PHY_20
*311 PHY_21
*312 PHY_22
*313 PHY_23
*314 PHY_24
*315 PHY_25
*316 PHY_26
*317 PHY_27
*318 PHY_3
*319 PHY_4
*320 PHY_5
*321 PHY_6
*322 PHY_7
*323 PHY_8
*324 PHY_9
*325 TAP_28
*326 TAP_29
*327 TAP_30
*328 TAP_31
*329 TAP_32
*330 TAP_33
*331 TAP_34
*332 TAP_35
*333 TAP_36
*334 TAP_37
*335 TAP_38
*336 TAP_39
*337 TAP_40
*338 TAP_41
*339 TAP_42
*340 TAP_43
*341 TAP_44
*342 TAP_45
*343 TAP_46
*344 TAP_47
*345 TAP_48
*346 TAP_49
*347 TAP_50
*348 TAP_51
*349 _059_
*350 _060_
*351 _061_
*352 _062_
*353 _063_
*354 _064_
*355 _065_
*356 _066_
*357 _067_
*358 _068_
*359 _069_
*360 _070_
*361 _071_
*362 _072_
*363 _073_
*364 _074_
*365 _075_
*366 _076_
*367 _077_
*368 _078_
*369 _079_
*370 _080_
*371 _081_
*372 _082_
*373 _083_
*374 _084_
*375 _085_
*376 _086_
*377 _087_
*378 _088_
*379 _089_
*380 _090_
*381 _091_
*382 _092_
*383 _093_
*384 _094_
*385 _095_
*386 _096_
*387 _097_
*388 _098_
*389 _099_
*390 _100_
*391 _101_
*392 _102_
*393 _103_
*394 _104_
*395 _105_
*396 _106_
*397 _107_
*398 _108_
*399 _109_
*400 _110_
*401 _111_
*402 _112_
*403 _113_
*404 _114_
*405 _115_
*406 _116_
*407 _117_
*408 _118_
*409 _119_
*410 _120_
*411 _121_
*412 _122_
*413 _123_
*414 _124_
*415 _125_
*416 _126_
*417 _127_
*418 _128_
*419 _129_
*420 _130_
*421 _131_
*422 _132_
*423 _133_
*424 _134_
*425 _135_
*426 _136_
*427 _137_
*428 _138_
*429 _139_
*430 _140_
*431 _141_
*432 _142_
*433 _143_
*434 _149_
*435 _150_
*436 _151_
*437 _152_
*438 _153_
*439 _154_
*440 _155_
*441 _156_
*442 _157_
*443 _158_
*444 _159_
*445 _160_
*446 _161_
*447 _162_
*448 _163_
*449 _164_
*450 _165_
*451 _166_
*452 _167_
*453 _167__44
*454 _168_
*455 _169_
*456 _170_
*457 _171_
*458 _172_
*459 _173_
*460 _174_
*461 _175_
*462 _176_
*463 _177_
*464 _178_
*465 _179_
*466 _180_
*467 _180__45
*468 _181_
*469 _182_
*470 _183_
*471 _184_
*472 _185_
*473 _186_
*474 _187_
*475 _188_
*476 _189_
*477 _190_
*478 _191_
*479 _191__46
*480 _192_
*481 _193_
*482 _194_
*483 _195_
*484 _195__47
*485 _196_
*486 _197_
*487 _198_
*488 _199_
*489 _199__48
*490 _200_
*491 _201_
*492 _202_
*493 clkbuf_0_prog_clk
*494 clkbuf_1_0__f_prog_clk
*495 clkbuf_1_1__f_prog_clk
*496 hold1
*497 hold10
*498 hold11
*499 hold2
*500 hold3
*501 hold4
*502 hold5
*503 hold6
*504 hold7
*505 hold8
*506 hold9
*507 input1
*508 input10
*509 input11
*510 input12
*511 input13
*512 input14
*513 input15
*514 input16
*515 input17
*516 input18
*517 input19
*518 input2
*519 input3
*520 input4
*521 input5
*522 input6
*523 input7
*524 input8
*525 input9
*526 output20
*527 output21
*528 output22
*529 output23
*530 output24
*531 output25
*532 output26
*533 output27
*534 output28
*535 output29
*536 output30
*537 output31
*538 output32
*539 output33
*540 output34
*541 output35
*542 output36
*543 output37
*544 output38
*545 output39
*546 output40
*547 output41
*548 output42
*549 output43

*PORTS
bottom_grid_top_width_0_height_0_subtile_0__pin_I_0_ O
bottom_grid_top_width_0_height_0_subtile_0__pin_I_4_ O
bottom_grid_top_width_0_height_0_subtile_0__pin_I_8_ O
ccff_head I
ccff_tail O
chanx_left_in[0] I
chanx_left_in[1] I
chanx_left_in[2] I
chanx_left_in[3] I
chanx_left_in[4] I
chanx_left_in[5] I
chanx_left_in[6] I
chanx_left_in[7] I
chanx_left_in[8] I
chanx_left_out[0] O
chanx_left_out[1] O
chanx_left_out[2] O
chanx_left_out[3] O
chanx_left_out[4] O
chanx_left_out[5] O
chanx_left_out[6] O
chanx_left_out[7] O
chanx_left_out[8] O
chanx_right_in[0] I
chanx_right_in[1] I
chanx_right_in[2] I
chanx_right_in[3] I
chanx_right_in[4] I
chanx_right_in[5] I
chanx_right_in[6] I
chanx_right_in[7] I
chanx_right_in[8] I
chanx_right_out[0] O
chanx_right_out[1] O
chanx_right_out[2] O
chanx_right_out[3] O
chanx_right_out[4] O
chanx_right_out[5] O
chanx_right_out[6] O
chanx_right_out[7] O
chanx_right_out[8] O
prog_clk I
top_grid_bottom_width_0_height_0_subtile_0__pin_I_2_ O
top_grid_bottom_width_0_height_0_subtile_0__pin_I_6_ O

*D_NET *1 0.00110743
*CONN
*P bottom_grid_top_width_0_height_0_subtile_0__pin_I_0_ O
*I *526:X O *D sky130_fd_sc_hd__clkbuf_4
*CAP
1 bottom_grid_top_width_0_height_0_subtile_0__pin_I_0_ 0.000469581
2 *526:X 0.000469581
3 bottom_grid_top_width_0_height_0_subtile_0__pin_I_0_ bottom_grid_top_width_0_height_0_subtile_0__pin_I_4_ 0
4 bottom_grid_top_width_0_height_0_subtile_0__pin_I_0_ chanx_right_out[8] 0
5 bottom_grid_top_width_0_height_0_subtile_0__pin_I_0_ *526:A 0.000163204
6 bottom_grid_top_width_0_height_0_subtile_0__pin_I_0_ *527:A 5.062e-06
*RES
1 *526:X bottom_grid_top_width_0_height_0_subtile_0__pin_I_0_ 11.22 
*END

*D_NET *2 0.000975398
*CONN
*P bottom_grid_top_width_0_height_0_subtile_0__pin_I_4_ O
*I *527:X O *D sky130_fd_sc_hd__clkbuf_4
*CAP
1 bottom_grid_top_width_0_height_0_subtile_0__pin_I_4_ 0.000462528
2 *527:X 0.000462528
3 bottom_grid_top_width_0_height_0_subtile_0__pin_I_4_ bottom_grid_top_width_0_height_0_subtile_0__pin_I_8_ 0
4 bottom_grid_top_width_0_height_0_subtile_0__pin_I_4_ *510:A 0
5 bottom_grid_top_width_0_height_0_subtile_0__pin_I_4_ *527:A 4.77757e-05
6 bottom_grid_top_width_0_height_0_subtile_0__pin_I_4_ *150:20 2.56752e-06
7 bottom_grid_top_width_0_height_0_subtile_0__pin_I_0_ bottom_grid_top_width_0_height_0_subtile_0__pin_I_4_ 0
*RES
1 *527:X bottom_grid_top_width_0_height_0_subtile_0__pin_I_4_ 11.505 
*END

*D_NET *3 0.00115626
*CONN
*P bottom_grid_top_width_0_height_0_subtile_0__pin_I_8_ O
*I *528:X O *D sky130_fd_sc_hd__clkbuf_4
*CAP
1 bottom_grid_top_width_0_height_0_subtile_0__pin_I_8_ 0.000411572
2 *528:X 0.000411572
3 bottom_grid_top_width_0_height_0_subtile_0__pin_I_8_ *510:A 0.000333113
4 bottom_grid_top_width_0_height_0_subtile_0__pin_I_4_ bottom_grid_top_width_0_height_0_subtile_0__pin_I_8_ 0
*RES
1 *528:X bottom_grid_top_width_0_height_0_subtile_0__pin_I_8_ 11.985 
*END

*D_NET *4 0.00225302
*CONN
*P ccff_head I
*I *507:A I *D sky130_fd_sc_hd__clkbuf_1
*CAP
1 ccff_head 0.000945248
2 *507:A 0.000945248
3 *507:A ccff_tail 0
4 *507:A top_grid_bottom_width_0_height_0_subtile_0__pin_I_2_ 0
5 *507:A top_grid_bottom_width_0_height_0_subtile_0__pin_I_6_ 0
6 *507:A *424:D 0.000272087
7 *507:A *515:A 1.79536e-05
8 *507:A *516:A 0
9 *507:A *517:A 0
10 *507:A *529:A 7.24866e-05
11 *507:A *548:A 0
*RES
1 ccff_head *507:A 18.1835 
*END

*D_NET *5 0.00267994
*CONN
*P ccff_tail O
*I *529:X O *D sky130_fd_sc_hd__clkbuf_4
*CAP
1 ccff_tail 0.00120514
2 *529:X 0.00120514
3 ccff_tail chanx_left_out[8] 0
4 ccff_tail top_grid_bottom_width_0_height_0_subtile_0__pin_I_2_ 0
5 ccff_tail top_grid_bottom_width_0_height_0_subtile_0__pin_I_6_ 0.000161796
6 ccff_tail *434:A 7.23533e-05
7 ccff_tail *437:A 0
8 ccff_tail *457:A 4.05674e-06
9 ccff_tail *537:A 1.82476e-05
10 ccff_tail *548:A 0
11 ccff_tail *549:A 1.31975e-05
12 *507:A ccff_tail 0
*RES
1 *529:X ccff_tail 16.8092 
*END

*D_NET *6 0.00218434
*CONN
*P chanx_left_in[0] I
*I *518:A I *D sky130_fd_sc_hd__buf_1
*CAP
1 chanx_left_in[0] 0.000631687
2 *518:A 0.000631687
3 *518:A *371:A 8.71655e-05
4 *518:A *415:A 0.000138551
5 *518:A *493:A 0
6 *518:A *519:A 0.00019116
7 *518:A *539:A 0.000253949
8 *518:A *541:A 0.000232755
9 *518:A *542:A 0
10 *518:A *150:20 1.73877e-05
*RES
1 chanx_left_in[0] *518:A 12.3237 
*END

*D_NET *7 0.00173231
*CONN
*P chanx_left_in[1] I
*I *519:A I *D sky130_fd_sc_hd__buf_1
*CAP
1 chanx_left_in[1] 0.000473396
2 *519:A 0.000473396
3 *519:A *412:A 0.000141599
4 *519:A *415:A 3.21271e-05
5 *519:A *520:A 1.47131e-06
6 *519:A *541:A 0.000394169
7 *519:A *180:8 2.49909e-05
8 *518:A *519:A 0.00019116
*RES
1 chanx_left_in[1] *519:A 10.0827 
*END

*D_NET *8 0.000641952
*CONN
*P chanx_left_in[2] I
*I *520:A I *D sky130_fd_sc_hd__buf_1
*CAP
1 chanx_left_in[2] 0.00032024
2 *520:A 0.00032024
3 *520:A *521:A 0
4 *520:A *531:A 0
5 *519:A *520:A 1.47131e-06
*RES
1 chanx_left_in[2] *520:A 8.17043 
*END

*D_NET *9 0.000641466
*CONN
*P chanx_left_in[3] I
*I *521:A I *D sky130_fd_sc_hd__buf_1
*CAP
1 chanx_left_in[3] 0.000320733
2 *521:A 0.000320733
3 *521:A *522:A 0
4 *521:A *531:A 0
5 *521:A *151:28 0
6 *520:A *521:A 0
*RES
1 chanx_left_in[3] *521:A 8.17043 
*END

*D_NET *10 0.000719551
*CONN
*P chanx_left_in[4] I
*I *522:A I *D sky130_fd_sc_hd__buf_1
*CAP
1 chanx_left_in[4] 0.000271984
2 *522:A 0.000271984
3 *522:A *523:A 0
4 *522:A *204:26 0.000175583
5 *521:A *522:A 0
*RES
1 chanx_left_in[4] *522:A 6.63177 
*END

*D_NET *11 0.000855848
*CONN
*P chanx_left_in[5] I
*I *523:A I *D sky130_fd_sc_hd__clkbuf_1
*CAP
1 chanx_left_in[5] 0.000340377
2 *523:A 0.000340377
3 *523:A *524:A 0
4 *523:A *531:A 8.75474e-05
5 *523:A *204:26 8.75474e-05
6 *522:A *523:A 0
*RES
1 chanx_left_in[5] *523:A 5.97657 
*END

*D_NET *12 0.000474771
*CONN
*P chanx_left_in[6] I
*I *524:A I *D sky130_fd_sc_hd__buf_1
*CAP
1 chanx_left_in[6] 0.000237385
2 *524:A 0.000237385
3 *524:A chanx_left_out[0] 0
4 *524:A *525:A 0
5 *524:A *531:A 0
6 *523:A *524:A 0
*RES
1 chanx_left_in[6] *524:A 6.64043 
*END

*D_NET *13 0.00243313
*CONN
*P chanx_left_in[7] I
*I *525:A I *D sky130_fd_sc_hd__clkbuf_1
*CAP
1 chanx_left_in[7] 0.000901889
2 *525:A 0.000901889
3 *525:A chanx_left_out[2] 0.000173918
4 *525:A chanx_left_out[3] 0
5 *525:A *444:A 0.000181106
6 *525:A *508:A 1.15688e-05
7 *525:A *532:A 0.000208491
8 *525:A *148:16 5.42646e-05
9 *524:A *525:A 0
*RES
1 chanx_left_in[7] *525:A 13.0373 
*END

*D_NET *14 0.00222118
*CONN
*P chanx_left_in[8] I
*I *508:A I *D sky130_fd_sc_hd__buf_1
*CAP
1 chanx_left_in[8] 0.000880448
2 *508:A 0.000880448
3 *508:A chanx_left_out[1] 0
4 *508:A chanx_left_out[2] 0.000448711
5 *525:A *508:A 1.15688e-05
*RES
1 chanx_left_in[8] *508:A 12.209 
*END

*D_NET *15 0.00124759
*CONN
*P chanx_left_out[0] O
*I *530:X O *D sky130_fd_sc_hd__clkbuf_4
*CAP
1 chanx_left_out[0] 0.000620879
2 *530:X 0.000620879
3 chanx_left_out[0] *530:A 0
4 chanx_left_out[0] *531:A 5.83121e-06
5 *524:A chanx_left_out[0] 0
*RES
1 *530:X chanx_left_out[0] 13.62 
*END

*D_NET *16 0.00111025
*CONN
*P chanx_left_out[1] O
*I *531:X O *D sky130_fd_sc_hd__clkbuf_4
*CAP
1 chanx_left_out[1] 0.000511252
2 *531:X 0.000511252
3 chanx_left_out[1] *531:A 8.77498e-05
4 *508:A chanx_left_out[1] 0
*RES
1 *531:X chanx_left_out[1] 11.82 
*END

*D_NET *17 0.00136507
*CONN
*P chanx_left_out[2] O
*I *532:X O *D sky130_fd_sc_hd__clkbuf_4
*CAP
1 chanx_left_out[2] 0.000371219
2 *532:X 0.000371219
3 *508:A chanx_left_out[2] 0.000448711
4 *525:A chanx_left_out[2] 0.000173918
*RES
1 *532:X chanx_left_out[2] 11.82 
*END

*D_NET *18 0.000879807
*CONN
*P chanx_left_out[3] O
*I *533:X O *D sky130_fd_sc_hd__clkbuf_4
*CAP
1 chanx_left_out[3] 0.000439904
2 *533:X 0.000439904
3 *525:A chanx_left_out[3] 0
*RES
1 *533:X chanx_left_out[3] 10.53 
*END

*D_NET *19 0.00102286
*CONN
*P chanx_left_out[4] O
*I *534:X O *D sky130_fd_sc_hd__clkbuf_4
*CAP
1 chanx_left_out[4] 0.000511432
2 *534:X 0.000511432
*RES
1 *534:X chanx_left_out[4] 11.82 
*END

*D_NET *20 0.00126166
*CONN
*P chanx_left_out[5] O
*I *535:X O *D sky130_fd_sc_hd__clkbuf_4
*CAP
1 chanx_left_out[5] 0.000557301
2 *535:X 0.000557301
3 chanx_left_out[5] chanx_left_out[6] 0
4 chanx_left_out[5] *517:A 4.79333e-05
5 chanx_left_out[5] *535:A 9.91257e-05
*RES
1 *535:X chanx_left_out[5] 14.64 
*END

*D_NET *21 0.00111452
*CONN
*P chanx_left_out[6] O
*I *536:X O *D sky130_fd_sc_hd__clkbuf_4
*CAP
1 chanx_left_out[6] 0.000462677
2 *536:X 0.000462677
3 chanx_left_out[6] *535:A 6.63648e-05
4 chanx_left_out[6] *536:A 0.000122797
5 chanx_left_out[5] chanx_left_out[6] 0
*RES
1 *536:X chanx_left_out[6] 11.82 
*END

*D_NET *22 0.000892472
*CONN
*P chanx_left_out[7] O
*I *537:X O *D sky130_fd_sc_hd__clkbuf_4
*CAP
1 chanx_left_out[7] 0.000415869
2 *537:X 0.000415869
3 chanx_left_out[7] *535:A 3.20366e-05
4 chanx_left_out[7] *537:A 2.86975e-05
*RES
1 *537:X chanx_left_out[7] 10.53 
*END

*D_NET *23 0.00112878
*CONN
*P chanx_left_out[8] O
*I *538:X O *D sky130_fd_sc_hd__clkbuf_4
*CAP
1 chanx_left_out[8] 0.00047013
2 *538:X 0.00047013
3 chanx_left_out[8] *537:A 2.75145e-05
4 chanx_left_out[8] *538:A 0.000161003
5 ccff_tail chanx_left_out[8] 0
*RES
1 *538:X chanx_left_out[8] 11.82 
*END

*D_NET *24 0.0108966
*CONN
*P chanx_right_in[0] I
*I *509:A I *D sky130_fd_sc_hd__buf_1
*CAP
1 chanx_right_in[0] 0.00534033
2 *509:A 0.00534033
3 *509:A *407:A 3.03586e-05
4 *509:A *450:A 0
5 *509:A *493:A 0
6 *509:A *501:A 2.53191e-06
7 *509:A *510:A 0
8 *509:A *531:A 0.000124499
9 *509:A *540:A 0
10 *509:A *542:A 5.06311e-05
11 *509:A *544:A 7.9642e-06
*RES
1 chanx_right_in[0] *509:A 18.0657 
*END

*D_NET *25 0.00117302
*CONN
*P chanx_right_in[1] I
*I *510:A I *D sky130_fd_sc_hd__buf_1
*CAP
1 chanx_right_in[1] 0.000394679
2 *510:A 0.000394679
3 *510:A *26:35 0
4 *510:A *150:20 5.05437e-05
5 bottom_grid_top_width_0_height_0_subtile_0__pin_I_4_ *510:A 0
6 bottom_grid_top_width_0_height_0_subtile_0__pin_I_8_ *510:A 0.000333113
7 *509:A *510:A 0
*RES
1 chanx_right_in[1] *510:A 9.27003 
*END

*D_NET *26 0.00799513
*CONN
*P chanx_right_in[2] I
*I *511:A I *D sky130_fd_sc_hd__buf_1
*I *206:DIODE I *D sky130_fd_sc_hd__diode_2
*CAP
1 chanx_right_in[2] 0.00324877
2 *511:A 0
3 *206:DIODE 0.000127546
4 *26:35 0.00337632
5 *206:DIODE *151:28 3.29947e-05
6 *26:35 *355:A 0
7 *26:35 *356:A 6.55385e-05
8 *26:35 *366:A 0.000193506
9 *26:35 *409:A 9.44862e-05
10 *26:35 *425:CLK 4.65456e-05
11 *26:35 *431:CLK 2.11084e-05
12 *26:35 *431:D 2.74339e-05
13 *26:35 *483:TE_B 0
14 *26:35 *494:A 0.000339152
15 *26:35 *496:A 2.43218e-05
16 *26:35 *512:A 0
17 *26:35 *527:A 0
18 *26:35 *539:A 0
19 *26:35 *540:A 0.000104107
20 *26:35 *542:A 4.04613e-05
21 *26:35 *547:A 0.000121777
22 *26:35 *111:8 4.30228e-05
23 *26:35 *112:21 8.80323e-05
24 *510:A *26:35 0
*RES
1 chanx_right_in[2] *26:35 36.4234 
2 *26:35 *206:DIODE 3.43 
3 *26:35 *511:A 1.6 
*END

*D_NET *27 0.00657887
*CONN
*P chanx_right_in[3] I
*I *512:A I *D sky130_fd_sc_hd__buf_1
*CAP
1 chanx_right_in[3] 0.00198364
2 *512:A 0.00198364
3 *512:A *359:A 0.0001947
4 *512:A *374:A 9.13949e-06
5 *512:A *375:A 0
6 *512:A *383:A 0.000101876
7 *512:A *418:A 9.85622e-05
8 *512:A *419:A 0.000247374
9 *512:A *447:A 2.75145e-05
10 *512:A *465:TE_B 0.000104132
11 *512:A *475:A 0.000121817
12 *512:A *475:TE_B 0.000119594
13 *512:A *483:TE_B 0.00136669
14 *512:A *487:A 1.19928e-05
15 *512:A *513:A 0
16 *512:A *109:14 4.23703e-05
17 *512:A *138:10 8.34738e-05
18 *512:A *152:14 8.23457e-05
19 *26:35 *512:A 0
*RES
1 chanx_right_in[3] *512:A 20.539 
*END

*D_NET *28 0.000959141
*CONN
*P chanx_right_in[4] I
*I *513:A I *D sky130_fd_sc_hd__buf_1
*CAP
1 chanx_right_in[4] 0.000404684
2 *513:A 0.000404684
3 *513:A *420:A 0.000112482
4 *513:A *514:A 0
5 *513:A *153:14 3.72916e-05
6 *512:A *513:A 0
*RES
1 chanx_right_in[4] *513:A 7.78677 
*END

*D_NET *29 0.00170293
*CONN
*P chanx_right_in[5] I
*I *514:A I *D sky130_fd_sc_hd__clkbuf_1
*CAP
1 chanx_right_in[5] 0.000560491
2 *514:A 0.000560491
3 *514:A *388:A 0.000121019
4 *514:A *435:A 8.65905e-05
5 *514:A *488:A 2.86975e-05
6 *514:A *491:TE_B 0
7 *514:A *515:A 0.000175583
8 *514:A *529:A 0.00017006
9 *514:A *162:31 0
10 *513:A *514:A 0
*RES
1 chanx_right_in[5] *514:A 10.62 
*END

*D_NET *30 0.00166574
*CONN
*P chanx_right_in[6] I
*I *515:A I *D sky130_fd_sc_hd__buf_1
*CAP
1 chanx_right_in[6] 0.000618498
2 *515:A 0.000618498
3 *515:A *420:A 4.43871e-06
4 *515:A *424:D 8.62683e-05
5 *515:A *488:Z 5.83121e-06
6 *515:A *516:A 0
7 *515:A *529:A 4.94599e-05
8 *515:A *146:8 3.86607e-05
9 *515:A *155:22 5.05521e-05
10 *515:A *162:31 0
11 *507:A *515:A 1.79536e-05
12 *514:A *515:A 0.000175583
*RES
1 chanx_right_in[6] *515:A 11.8668 
*END

*D_NET *31 0.00118328
*CONN
*P chanx_right_in[7] I
*I *516:A I *D sky130_fd_sc_hd__clkbuf_1
*CAP
1 chanx_right_in[7] 0.000591638
2 *516:A 0.000591638
3 *516:A *517:A 0
4 *507:A *516:A 0
5 *515:A *516:A 0
*RES
1 chanx_right_in[7] *516:A 12.7922 
*END

*D_NET *32 0.00459337
*CONN
*P chanx_right_in[8] I
*I *517:A I *D sky130_fd_sc_hd__buf_1
*CAP
1 chanx_right_in[8] 0.00180829
2 *517:A 0.00180829
3 *517:A *397:A 0.00019902
4 *517:A *437:A 0
5 *517:A *535:A 0.000729837
6 chanx_left_out[5] *517:A 4.79333e-05
7 *507:A *517:A 0
8 *516:A *517:A 0
*RES
1 chanx_right_in[8] *517:A 16.6834 
*END

*D_NET *33 0.00162838
*CONN
*P chanx_right_out[0] O
*I *539:X O *D sky130_fd_sc_hd__clkbuf_4
*CAP
1 chanx_right_out[0] 0.000753024
2 *539:X 0.000753024
3 chanx_right_out[0] chanx_right_out[1] 0.000122337
*RES
1 *539:X chanx_right_out[0] 16.02 
*END

*D_NET *34 0.00164978
*CONN
*P chanx_right_out[1] O
*I *540:X O *D sky130_fd_sc_hd__clkbuf_4
*CAP
1 chanx_right_out[1] 0.000661568
2 *540:X 0.000661568
3 chanx_right_out[1] chanx_right_out[2] 0
4 chanx_right_out[1] *539:A 4.65698e-05
5 chanx_right_out[1] *540:A 1.77665e-05
6 chanx_right_out[1] *541:A 0.000139968
7 chanx_right_out[1] *150:20 0
8 chanx_right_out[0] chanx_right_out[1] 0.000122337
*RES
1 *540:X chanx_right_out[1] 15.255 
*END

*D_NET *35 0.000683201
*CONN
*P chanx_right_out[2] O
*I *541:X O *D sky130_fd_sc_hd__clkbuf_4
*CAP
1 chanx_right_out[2] 0.000323162
2 *541:X 0.000323162
3 chanx_right_out[2] chanx_right_out[3] 0
4 chanx_right_out[2] *150:20 3.68769e-05
5 chanx_right_out[1] chanx_right_out[2] 0
*RES
1 *541:X chanx_right_out[2] 9.39 
*END

*D_NET *36 0.000918436
*CONN
*P chanx_right_out[3] O
*I *542:X O *D sky130_fd_sc_hd__clkbuf_4
*CAP
1 chanx_right_out[3] 0.000442243
2 *542:X 0.000442243
3 chanx_right_out[3] chanx_right_out[4] 0
4 chanx_right_out[3] *470:A 1.47256e-05
5 chanx_right_out[3] *470:TE_B 1.45685e-05
6 chanx_right_out[3] *493:A 0
7 chanx_right_out[3] *545:A 4.65496e-06
8 chanx_right_out[2] chanx_right_out[3] 0
*RES
1 *542:X chanx_right_out[3] 11.25 
*END

*D_NET *37 0.000879797
*CONN
*P chanx_right_out[4] O
*I *543:X O *D sky130_fd_sc_hd__clkbuf_4
*CAP
1 chanx_right_out[4] 0.000295585
2 *543:X 0.000295585
3 chanx_right_out[4] chanx_right_out[5] 0
4 chanx_right_out[4] *493:A 0.000288627
5 chanx_right_out[3] chanx_right_out[4] 0
*RES
1 *543:X chanx_right_out[4] 9.945 
*END

*D_NET *38 0.000950065
*CONN
*P chanx_right_out[5] O
*I *544:X O *D sky130_fd_sc_hd__clkbuf_4
*CAP
1 chanx_right_out[5] 0.000417895
2 *544:X 0.000417895
3 chanx_right_out[5] chanx_right_out[6] 0
4 chanx_right_out[5] *493:A 0
5 chanx_right_out[5] *544:A 8.65961e-05
6 chanx_right_out[5] *545:A 2.76781e-05
7 chanx_right_out[4] chanx_right_out[5] 0
*RES
1 *544:X chanx_right_out[5] 10.53 
*END

*D_NET *39 0.00117814
*CONN
*P chanx_right_out[6] O
*I *545:X O *D sky130_fd_sc_hd__clkbuf_4
*CAP
1 chanx_right_out[6] 0.000519953
2 *545:X 0.000519953
3 chanx_right_out[6] chanx_right_out[7] 0
4 chanx_right_out[6] *377:A 1.33293e-05
5 chanx_right_out[6] *545:A 0.0001249
6 chanx_right_out[5] chanx_right_out[6] 0
*RES
1 *545:X chanx_right_out[6] 13.35 
*END

*D_NET *40 0.000930676
*CONN
*P chanx_right_out[7] O
*I *546:X O *D sky130_fd_sc_hd__clkbuf_4
*CAP
1 chanx_right_out[7] 0.000450517
2 *546:X 0.000450517
3 chanx_right_out[7] chanx_right_out[8] 0
4 chanx_right_out[7] *377:A 9.77048e-06
5 chanx_right_out[7] *546:A 1.9872e-05
6 chanx_right_out[6] chanx_right_out[7] 0
*RES
1 *546:X chanx_right_out[7] 11.505 
*END

*D_NET *41 0.000899194
*CONN
*P chanx_right_out[8] O
*I *547:X O *D sky130_fd_sc_hd__clkbuf_4
*CAP
1 chanx_right_out[8] 0.000429131
2 *547:X 0.000429131
3 chanx_right_out[8] *355:A 5.83121e-06
4 chanx_right_out[8] *527:A 5.062e-06
5 chanx_right_out[8] *547:A 3.00381e-05
6 bottom_grid_top_width_0_height_0_subtile_0__pin_I_0_ chanx_right_out[8] 0
7 chanx_right_out[7] chanx_right_out[8] 0
*RES
1 *547:X chanx_right_out[8] 10.53 
*END

*D_NET *42 0.00538647
*CONN
*P prog_clk I
*I *493:A I *D sky130_fd_sc_hd__clkbuf_16
*CAP
1 prog_clk 0.00155882
2 *493:A 0.00155882
3 *493:A *366:A 0.000113373
4 *493:A *372:A 0
5 *493:A *447:A 0.000533172
6 *493:A *459:A 0.000122331
7 *493:A *468:TE_B 0
8 *493:A *470:A 1.74516e-05
9 *493:A *474:A 0.000232258
10 *493:A *475:TE_B 0.000171722
11 *493:A *494:A 0.000323698
12 *493:A *543:A 0.000220119
13 *493:A *544:A 6.30136e-05
14 *493:A *202:22 0.00018306
15 chanx_right_out[3] *493:A 0
16 chanx_right_out[4] *493:A 0.000288627
17 chanx_right_out[5] *493:A 0
18 *509:A *493:A 0
19 *518:A *493:A 0
*RES
1 prog_clk *493:A 26.3365 
*END

*D_NET *43 0.00102038
*CONN
*P top_grid_bottom_width_0_height_0_subtile_0__pin_I_2_ O
*I *548:X O *D sky130_fd_sc_hd__clkbuf_4
*CAP
1 top_grid_bottom_width_0_height_0_subtile_0__pin_I_2_ 0.000510192
2 *548:X 0.000510192
3 ccff_tail top_grid_bottom_width_0_height_0_subtile_0__pin_I_2_ 0
4 *507:A top_grid_bottom_width_0_height_0_subtile_0__pin_I_2_ 0
*RES
1 *548:X top_grid_bottom_width_0_height_0_subtile_0__pin_I_2_ 11.82 
*END

*D_NET *44 0.00176287
*CONN
*P top_grid_bottom_width_0_height_0_subtile_0__pin_I_6_ O
*I *549:X O *D sky130_fd_sc_hd__clkbuf_4
*CAP
1 top_grid_bottom_width_0_height_0_subtile_0__pin_I_6_ 0.000784621
2 *549:X 0.000784621
3 top_grid_bottom_width_0_height_0_subtile_0__pin_I_6_ *529:A 3.1835e-05
4 ccff_tail top_grid_bottom_width_0_height_0_subtile_0__pin_I_6_ 0.000161796
5 *507:A top_grid_bottom_width_0_height_0_subtile_0__pin_I_6_ 0
*RES
1 *549:X top_grid_bottom_width_0_height_0_subtile_0__pin_I_6_ 16.935 
*END

*D_NET *47 0.000414223
*CONN
*I *363:A I *D sky130_fd_sc_hd__clkbuf_1
*I *362:X O *D sky130_fd_sc_hd__clkbuf_1
*CAP
1 *363:A 0.000152907
2 *362:X 0.000152907
3 *363:A *361:A 9.13949e-06
4 *363:A *362:A 7.20298e-05
5 *363:A *151:28 2.72392e-05
*RES
1 *362:X *363:A 5.75 
*END

*D_NET *48 0.00160578
*CONN
*I *365:A I *D sky130_fd_sc_hd__clkbuf_1
*I *364:X O *D sky130_fd_sc_hd__clkbuf_1
*CAP
1 *365:A 0.000276119
2 *364:X 0.000276119
3 *365:A *375:A 0.00026515
4 *365:A *379:A 4.89295e-05
5 *365:A *381:A 4.82863e-05
6 *365:A *429:D 0.000276168
7 *365:A *470:TE_B 0.000245404
8 *365:A *475:TE_B 6.9575e-05
9 *365:A *476:TE_B 1.34361e-05
10 *365:A *478:TE_B 8.65961e-05
*RES
1 *364:X *365:A 14.835 
*END

*D_NET *49 0.000365663
*CONN
*I *370:A I *D sky130_fd_sc_hd__clkbuf_1
*I *369:X O *D sky130_fd_sc_hd__clkbuf_1
*CAP
1 *370:A 9.04733e-05
2 *369:X 9.04733e-05
3 *370:A *542:A 0.000110492
4 *370:A *128:16 5.6458e-05
5 *370:A *150:26 1.77665e-05
*RES
1 *369:X *370:A 9.03 
*END

*D_NET *50 0.00557937
*CONN
*I *372:A I *D sky130_fd_sc_hd__clkbuf_1
*I *371:X O *D sky130_fd_sc_hd__clkbuf_1
*CAP
1 *372:A 0.00182481
2 *371:X 0.00182481
3 *372:A *371:A 1.83756e-05
4 *372:A *373:A 0.00012282
5 *372:A *476:TE_B 0
6 *372:A *527:A 5.7377e-05
7 *372:A *540:A 0
8 *372:A *541:A 3.64226e-05
9 *372:A *542:A 7.87074e-05
10 *372:A *544:A 0.00161605
11 *372:A *102:39 0
12 *493:A *372:A 0
*RES
1 *371:X *372:A 18.1181 
*END

*D_NET *51 0.00222866
*CONN
*I *375:A I *D sky130_fd_sc_hd__clkbuf_1
*I *374:X O *D sky130_fd_sc_hd__clkbuf_1
*CAP
1 *375:A 0.000501587
2 *374:X 0.000501587
3 *375:A *368:A 5.4155e-06
4 *375:A *374:A 0
5 *375:A *379:A 5.53249e-06
6 *375:A *445:A 0.000256216
7 *375:A *470:TE_B 0.000225238
8 *375:A *476:TE_B 1.01661e-05
9 *375:A *477:TE_B 0
10 *375:A *478:TE_B 0
11 *375:A *480:A 0.000113797
12 *375:A *102:23 0
13 *375:A *102:39 0.000312549
14 *375:A *109:16 3.14184e-05
15 *375:A *202:22 0
16 *365:A *375:A 0.00026515
17 *512:A *375:A 0
*RES
1 *374:X *375:A 19.005 
*END

*D_NET *52 0.00346169
*CONN
*I *377:A I *D sky130_fd_sc_hd__clkbuf_1
*I *376:X O *D sky130_fd_sc_hd__clkbuf_1
*CAP
1 *377:A 0.00069326
2 *376:X 0.00069326
3 *377:A *378:A 3.7837e-05
4 *377:A *382:A 0.000197726
5 *377:A *383:A 0.000238594
6 *377:A *398:A 0.00020726
7 *377:A *473:TE_B 1.16854e-05
8 *377:A *487:TE_B 0.000415644
9 *377:A *545:A 6.3457e-05
10 *377:A *546:A 0.000797025
11 *377:A *103:69 8.28384e-05
12 chanx_right_out[6] *377:A 1.33293e-05
13 chanx_right_out[7] *377:A 9.77048e-06
*RES
1 *376:X *377:A 24.9 
*END

*D_NET *53 0.00270946
*CONN
*I *381:A I *D sky130_fd_sc_hd__clkbuf_1
*I *380:X O *D sky130_fd_sc_hd__clkbuf_1
*CAP
1 *381:A 0.000531246
2 *380:X 0.000531246
3 *381:A *405:A 0.000418702
4 *381:A *427:D 0.000124105