*SPEF "ieee 1481-1999"
*DESIGN "cbx_1__10_"
*DATE "11:11:11 Fri 11 11, 1111"
*VENDOR "OpenRCX"
*PROGRAM "Parallel Extraction"
*VERSION "1.0"
*DESIGN_FLOW "NAME_SCOPE LOCAL" "PIN_CAP NONE"
*DIVIDER /
*DELIMITER :
*BUS_DELIMITER []
*T_UNIT 1 NS
*C_UNIT 1 PF
*R_UNIT 1 OHM
*L_UNIT 1 HENRY

*NAME_MAP
*1 bottom_grid_top_width_0_height_0_subtile_0__pin_I_0_
*2 bottom_grid_top_width_0_height_0_subtile_0__pin_I_4_
*3 bottom_grid_top_width_0_height_0_subtile_0__pin_I_8_
*4 ccff_head
*5 ccff_tail
*6 chanx_left_in[0]
*7 chanx_left_in[1]
*8 chanx_left_in[2]
*9 chanx_left_in[3]
*10 chanx_left_in[4]
*11 chanx_left_in[5]
*12 chanx_left_in[6]
*13 chanx_left_in[7]
*14 chanx_left_in[8]
*15 chanx_left_out[0]
*16 chanx_left_out[1]
*17 chanx_left_out[2]
*18 chanx_left_out[3]
*19 chanx_left_out[4]
*20 chanx_left_out[5]
*21 chanx_left_out[6]
*22 chanx_left_out[7]
*23 chanx_left_out[8]
*24 chanx_right_in[0]
*25 chanx_right_in[1]
*26 chanx_right_in[2]
*27 chanx_right_in[3]
*28 chanx_right_in[4]
*29 chanx_right_in[5]
*30 chanx_right_in[6]
*31 chanx_right_in[7]
*32 chanx_right_in[8]
*33 chanx_right_out[0]
*34 chanx_right_out[1]
*35 chanx_right_out[2]
*36 chanx_right_out[3]
*37 chanx_right_out[4]
*38 chanx_right_out[5]
*39 chanx_right_out[6]
*40 chanx_right_out[7]
*41 chanx_right_out[8]
*42 prog_clk
*43 top_grid_bottom_width_0_height_0_subtile_0__pin_outpad_0_
*46 _000_
*47 _001_
*48 _002_
*49 _003_
*50 _004_
*51 _005_
*52 _006_
*53 _007_
*54 _008_
*55 _009_
*56 _010_
*57 _011_
*58 _012_
*59 _013_
*60 _014_
*61 _015_
*62 _016_
*63 _017_
*64 _018_
*65 _019_
*66 _020_
*67 _021_
*68 _022_
*69 _023_
*70 _024_
*71 _025_
*72 _026_
*73 _027_
*74 _028_
*75 _029_
*76 _030_
*77 _031_
*78 _032_
*79 _033_
*80 _034_
*81 _035_
*82 _036_
*83 _037_
*84 _038_
*85 _039_
*86 _040_
*87 _041_
*88 _042_
*89 _043_
*90 _044_
*91 _045_
*92 _046_
*93 _047_
*94 clknet_0_prog_clk
*95 clknet_1_0__leaf_prog_clk
*96 clknet_1_1__leaf_prog_clk
*97 mem_bottom_ipin_0\.DFF_0_\.Q
*98 mem_bottom_ipin_0\.DFF_1_\.Q
*99 mem_bottom_ipin_0\.DFF_2_\.Q
*100 mem_top_ipin_0\.DFF_0_\.Q
*101 mem_top_ipin_0\.DFF_1_\.Q
*102 mem_top_ipin_0\.DFF_2_\.Q
*103 mem_top_ipin_1\.DFF_0_\.Q
*104 mem_top_ipin_1\.DFF_1_\.Q
*105 mem_top_ipin_2\.DFF_0_\.Q
*106 mux_bottom_ipin_0\.INVTX1_0_\.out
*107 mux_bottom_ipin_0\.INVTX1_1_\.out
*108 mux_bottom_ipin_0\.INVTX1_2_\.out
*109 mux_bottom_ipin_0\.INVTX1_3_\.out
*110 mux_bottom_ipin_0\.INVTX1_4_\.out
*111 mux_bottom_ipin_0\.INVTX1_5_\.out
*112 mux_bottom_ipin_0\.mux_l1_in_0_\.TGATE_0_\.out
*113 mux_bottom_ipin_0\.mux_l1_in_1_\.TGATE_0_\.out
*114 mux_bottom_ipin_0\.mux_l1_in_2_\.TGATE_0_\.out
*115 mux_bottom_ipin_0\.mux_l2_in_0_\.TGATE_0_\.out
*116 mux_bottom_ipin_0\.mux_l2_in_1_\.TGATE_0_\.out
*117 mux_bottom_ipin_0\.mux_l3_in_0_\.TGATE_0_\.out
*118 mux_top_ipin_0\.INVTX1_2_\.out
*119 mux_top_ipin_0\.INVTX1_3_\.out
*120 mux_top_ipin_0\.INVTX1_4_\.out
*121 mux_top_ipin_0\.INVTX1_5_\.out
*122 mux_top_ipin_0\.mux_l1_in_0_\.TGATE_0_\.out
*123 mux_top_ipin_0\.mux_l1_in_1_\.TGATE_0_\.out
*124 mux_top_ipin_0\.mux_l1_in_2_\.TGATE_0_\.out
*125 mux_top_ipin_0\.mux_l2_in_0_\.TGATE_0_\.out
*126 mux_top_ipin_0\.mux_l2_in_1_\.TGATE_0_\.out
*127 mux_top_ipin_0\.mux_l3_in_0_\.TGATE_0_\.out
*128 mux_top_ipin_1\.INVTX1_0_\.out
*129 mux_top_ipin_1\.INVTX1_1_\.out
*130 mux_top_ipin_1\.mux_l1_in_0_\.TGATE_0_\.out
*131 mux_top_ipin_1\.mux_l2_in_0_\.TGATE_0_\.out
*132 mux_top_ipin_2\.INVTX1_0_\.out
*133 mux_top_ipin_2\.INVTX1_1_\.out
*134 mux_top_ipin_2\.mux_l1_in_0_\.TGATE_0_\.out
*135 mux_top_ipin_2\.mux_l2_in_0_\.TGATE_0_\.out
*136 net1
*137 net10
*138 net11
*139 net12
*140 net13
*141 net14
*142 net15
*143 net16
*144 net17
*145 net18
*146 net19
*147 net2
*148 net20
*149 net21
*150 net22
*151 net23
*152 net24
*153 net25
*154 net26
*155 net27
*156 net28
*157 net29
*158 net3
*159 net30
*160 net31
*161 net32
*162 net33
*163 net34
*164 net35
*165 net36
*166 net37
*167 net38
*168 net39
*169 net4
*170 net40
*171 net41
*172 net42
*173 net43
*174 net44
*175 net45
*176 net46
*177 net47
*178 net48
*179 net49
*180 net5
*181 net50
*182 net51
*183 net52
*184 net53
*185 net54
*186 net55
*187 net6
*188 net7
*189 net8
*190 net9
*191 ANTENNA_1
*192 ANTENNA_2
*193 ANTENNA_3
*194 FILLER_0_0_29
*195 FILLER_0_0_3
*196 FILLER_0_0_39
*197 FILLER_0_0_57
*198 FILLER_0_10_15
*199 FILLER_0_10_27
*200 FILLER_0_10_29
*201 FILLER_0_10_3
*202 FILLER_0_10_41
*203 FILLER_0_10_50
*204 FILLER_0_10_56
*205 FILLER_0_10_82
*206 FILLER_0_10_85
*207 FILLER_0_11_101
*208 FILLER_0_11_18
*209 FILLER_0_11_30
*210 FILLER_0_11_42
*211 FILLER_0_11_47
*212 FILLER_0_11_55
*213 FILLER_0_11_57
*214 FILLER_0_11_6
*215 FILLER_0_11_69
*216 FILLER_0_11_74
*217 FILLER_0_11_82
*218 FILLER_0_12_13
*219 FILLER_0_12_25
*220 FILLER_0_12_29
*221 FILLER_0_12_40
*222 FILLER_0_12_52
*223 FILLER_0_12_57
*224 FILLER_0_12_69
*225 FILLER_0_12_81
*226 FILLER_0_12_85
*227 FILLER_0_12_9
*228 FILLER_0_13_20
*229 FILLER_0_13_27
*230 FILLER_0_13_29
*231 FILLER_0_13_33
*232 FILLER_0_13_40
*233 FILLER_0_13_46
*234 FILLER_0_13_53
*235 FILLER_0_13_57
*236 FILLER_0_13_6
*237 FILLER_0_13_66
*238 FILLER_0_13_72
*239 FILLER_0_13_79
*240 FILLER_0_13_85
*241 FILLER_0_13_92
*242 FILLER_0_1_102
*243 FILLER_0_1_3
*244 FILLER_0_1_52
*245 FILLER_0_1_8
*246 FILLER_0_2_102
*247 FILLER_0_2_11
*248 FILLER_0_2_15
*249 FILLER_0_2_29
*250 FILLER_0_2_3
*251 FILLER_0_2_56
*252 FILLER_0_2_82
*253 FILLER_0_2_85
*254 FILLER_0_2_91
*255 FILLER_0_3_101
*256 FILLER_0_3_12
*257 FILLER_0_3_29
*258 FILLER_0_3_74
*259 FILLER_0_3_83
*260 FILLER_0_4_40
*261 FILLER_0_4_9
*262 FILLER_0_4_93
*263 FILLER_0_5_101
*264 FILLER_0_5_11
*265 FILLER_0_5_21
*266 FILLER_0_5_40
*267 FILLER_0_5_6
*268 FILLER_0_5_77
*269 FILLER_0_6_101
*270 FILLER_0_6_26
*271 FILLER_0_6_3
*272 FILLER_0_6_45
*273 FILLER_0_6_83
*274 FILLER_0_6_91
*275 FILLER_0_7_101
*276 FILLER_0_7_28
*277 FILLER_0_7_46
*278 FILLER_0_7_57
*279 FILLER_0_7_9
*280 FILLER_0_8_102
*281 FILLER_0_8_22
*282 FILLER_0_8_29
*283 FILLER_0_8_3
*284 FILLER_0_8_59
*285 FILLER_0_8_71
*286 FILLER_0_8_8
*287 FILLER_0_8_82
*288 FILLER_0_9_21
*289 FILLER_0_9_33
*290 FILLER_0_9_55
*291 FILLER_0_9_57
*292 FILLER_0_9_9
*293 FILLER_0_9_93
*294 FILLER_0_9_98
*295 PHY_0
*296 PHY_1
*297 PHY_10
*298 PHY_11
*299 PHY_12
*300 PHY_13
*301 PHY_14
*302 PHY_15
*303 PHY_16
*304 PHY_17
*305 PHY_18
*306 PHY_19
*307 PHY_2
*308 PHY_20
*309 PHY_21
*310 PHY_22
*311 PHY_23
*312 PHY_24
*313 PHY_25
*314 PHY_26
*315 PHY_27
*316 PHY_3
*317 PHY_4
*318 PHY_5
*319 PHY_6
*320 PHY_7
*321 PHY_8
*322 PHY_9
*323 TAP_28
*324 TAP_29
*325 TAP_30
*326 TAP_31
*327 TAP_32
*328 TAP_33
*329 TAP_34
*330 TAP_35
*331 TAP_36
*332 TAP_37
*333 TAP_38
*334 TAP_39
*335 TAP_40
*336 TAP_41
*337 TAP_42
*338 TAP_43
*339 TAP_44
*340 TAP_45
*341 TAP_46
*342 TAP_47
*343 TAP_48
*344 TAP_49
*345 TAP_50
*346 TAP_51
*347 _052_
*348 _053_
*349 _054_
*350 _055_
*351 _056_
*352 _057_
*353 _058_
*354 _059_
*355 _060_
*356 _061_
*357 _062_
*358 _063_
*359 _064_
*360 _065_
*361 _066_
*362 _067_
*363 _068_
*364 _069_
*365 _070_
*366 _071_
*367 _072_
*368 _073_
*369 _074_
*370 _075_
*371 _076_
*372 _077_
*373 _078_
*374 _079_
*375 _080_
*376 _081_
*377 _082_
*378 _083_
*379 _084_
*380 _085_
*381 _086_
*382 _087_
*383 _088_
*384 _089_
*385 _090_
*386 _091_
*387 _092_
*388 _093_
*389 _094_
*390 _095_
*391 _096_
*392 _097_
*393 _098_
*394 _099_
*395 _100_
*396 _101_
*397 _102_
*398 _103_
*399 _104_
*400 _105_
*401 _106_
*402 _107_
*403 _108_
*404 _109_
*405 _110_
*406 _111_
*407 _112_
*408 _113_
*409 _114_
*410 _115_
*411 _116_
*412 _117_
*413 _118_
*414 _119_
*415 _120_
*416 _121_
*417 _122_
*418 _123_
*419 _124_
*420 _125_
*421 _126_
*422 _127_
*423 _132_
*424 _133_
*425 _134_
*426 _135_
*427 _136_
*428 _137_
*429 _138_
*430 _139_
*431 _140_
*432 _141_
*433 _142_
*434 _143_
*435 _144_
*436 _145_
*437 _146_
*438 _147_
*439 _148_
*440 _149_
*441 _150_
*442 _150__43
*443 _151_
*444 _152_
*445 _153_
*446 _154_
*447 _155_
*448 _156_
*449 _157_
*450 _158_
*451 _159_
*452 _160_
*453 _161_
*454 _162_
*455 _163_
*456 _163__44
*457 _164_
*458 _165_
*459 _166_
*460 _167_
*461 _168_
*462 _169_
*463 _170_
*464 _171_
*465 _172_
*466 _173_
*467 _174_
*468 _174__45
*469 _175_
*470 _176_
*471 _177_
*472 _178_
*473 _178__46
*474 _179_
*475 _180_
*476 _181_
*477 clkbuf_0_prog_clk
*478 clkbuf_1_0__f_prog_clk
*479 clkbuf_1_1__f_prog_clk
*480 hold1
*481 hold2
*482 hold3
*483 hold4
*484 hold5
*485 hold6
*486 hold7
*487 hold8
*488 hold9
*489 input1
*490 input10
*491 input11
*492 input12
*493 input13
*494 input14
*495 input15
*496 input16
*497 input17
*498 input18
*499 input19
*500 input2
*501 input3
*502 input4
*503 input5
*504 input6
*505 input7
*506 input8
*507 input9
*508 output20
*509 output21
*510 output22
*511 output23
*512 output24
*513 output25
*514 output26
*515 output27
*516 output28
*517 output29
*518 output30
*519 output31
*520 output32
*521 output33
*522 output34
*523 output35
*524 output36
*525 output37
*526 output38
*527 output39
*528 output40
*529 output41
*530 output42

*PORTS
bottom_grid_top_width_0_height_0_subtile_0__pin_I_0_ O
bottom_grid_top_width_0_height_0_subtile_0__pin_I_4_ O
bottom_grid_top_width_0_height_0_subtile_0__pin_I_8_ O
ccff_head I
ccff_tail O
chanx_left_in[0] I
chanx_left_in[1] I
chanx_left_in[2] I
chanx_left_in[3] I
chanx_left_in[4] I
chanx_left_in[5] I
chanx_left_in[6] I
chanx_left_in[7] I
chanx_left_in[8] I
chanx_left_out[0] O
chanx_left_out[1] O
chanx_left_out[2] O
chanx_left_out[3] O
chanx_left_out[4] O
chanx_left_out[5] O
chanx_left_out[6] O
chanx_left_out[7] O
chanx_left_out[8] O
chanx_right_in[0] I
chanx_right_in[1] I
chanx_right_in[2] I
chanx_right_in[3] I
chanx_right_in[4] I
chanx_right_in[5] I
chanx_right_in[6] I
chanx_right_in[7] I
chanx_right_in[8] I
chanx_right_out[0] O
chanx_right_out[1] O
chanx_right_out[2] O
chanx_right_out[3] O
chanx_right_out[4] O
chanx_right_out[5] O
chanx_right_out[6] O
chanx_right_out[7] O
chanx_right_out[8] O
prog_clk I
top_grid_bottom_width_0_height_0_subtile_0__pin_outpad_0_ O

*D_NET *1 0.00412804
*CONN
*P bottom_grid_top_width_0_height_0_subtile_0__pin_I_0_ O
*I *508:X O *D sky130_fd_sc_hd__clkbuf_4
*CAP
1 bottom_grid_top_width_0_height_0_subtile_0__pin_I_0_ 0.00128611
2 *508:X 0.00128611
3 bottom_grid_top_width_0_height_0_subtile_0__pin_I_0_ chanx_right_out[8] 0
4 bottom_grid_top_width_0_height_0_subtile_0__pin_I_0_ *421:D 0.000136599
5 bottom_grid_top_width_0_height_0_subtile_0__pin_I_0_ *422:D 9.44681e-05
6 bottom_grid_top_width_0_height_0_subtile_0__pin_I_0_ *471:TE_B 0
7 bottom_grid_top_width_0_height_0_subtile_0__pin_I_0_ *491:A 0
8 bottom_grid_top_width_0_height_0_subtile_0__pin_I_0_ *492:A 0.00108719
9 bottom_grid_top_width_0_height_0_subtile_0__pin_I_0_ *508:A 0.000150803
10 bottom_grid_top_width_0_height_0_subtile_0__pin_I_0_ *96:18 8.23457e-05
11 bottom_grid_top_width_0_height_0_subtile_0__pin_I_0_ *96:28 0
12 bottom_grid_top_width_0_height_0_subtile_0__pin_I_0_ *103:14 0
13 bottom_grid_top_width_0_height_0_subtile_0__pin_I_0_ *151:8 4.40325e-06
*RES
1 *508:X bottom_grid_top_width_0_height_0_subtile_0__pin_I_0_ 26.355 
*END

*D_NET *2 0.00104247
*CONN
*P bottom_grid_top_width_0_height_0_subtile_0__pin_I_4_ O
*I *509:X O *D sky130_fd_sc_hd__clkbuf_4
*CAP
1 bottom_grid_top_width_0_height_0_subtile_0__pin_I_4_ 0.000352105
2 *509:X 0.000352105
3 bottom_grid_top_width_0_height_0_subtile_0__pin_I_4_ bottom_grid_top_width_0_height_0_subtile_0__pin_I_8_ 0
4 bottom_grid_top_width_0_height_0_subtile_0__pin_I_4_ *491:A 0.000219157
5 bottom_grid_top_width_0_height_0_subtile_0__pin_I_4_ *138:28 0.000119101
*RES
1 *509:X bottom_grid_top_width_0_height_0_subtile_0__pin_I_4_ 10.875 
*END

*D_NET *3 0.00375322
*CONN
*P bottom_grid_top_width_0_height_0_subtile_0__pin_I_8_ O
*I *510:X O *D sky130_fd_sc_hd__clkbuf_4
*CAP
1 bottom_grid_top_width_0_height_0_subtile_0__pin_I_8_ 0.00134998
2 *510:X 0.00134998
3 bottom_grid_top_width_0_height_0_subtile_0__pin_I_8_ chanx_right_out[8] 0.0002846
4 bottom_grid_top_width_0_height_0_subtile_0__pin_I_8_ *419:D 7.70553e-06
5 bottom_grid_top_width_0_height_0_subtile_0__pin_I_8_ *420:CLK 3.18219e-05
6 bottom_grid_top_width_0_height_0_subtile_0__pin_I_8_ *420:D 0.000121547
7 bottom_grid_top_width_0_height_0_subtile_0__pin_I_8_ *471:A 5.05774e-05
8 bottom_grid_top_width_0_height_0_subtile_0__pin_I_8_ *478:A 4.60584e-05
9 bottom_grid_top_width_0_height_0_subtile_0__pin_I_8_ *479:A 4.60584e-05
10 bottom_grid_top_width_0_height_0_subtile_0__pin_I_8_ *493:A 4.72993e-05
11 bottom_grid_top_width_0_height_0_subtile_0__pin_I_8_ *509:A 0
12 bottom_grid_top_width_0_height_0_subtile_0__pin_I_8_ *529:A 0.000196745
13 bottom_grid_top_width_0_height_0_subtile_0__pin_I_8_ *96:10 5.30673e-05
14 bottom_grid_top_width_0_height_0_subtile_0__pin_I_8_ *103:14 9.45943e-05
15 bottom_grid_top_width_0_height_0_subtile_0__pin_I_8_ *131:14 6.48736e-05
16 bottom_grid_top_width_0_height_0_subtile_0__pin_I_8_ *175:26 8.30853e-06
17 bottom_grid_top_width_0_height_0_subtile_0__pin_I_4_ bottom_grid_top_width_0_height_0_subtile_0__pin_I_8_ 0
*RES
1 *510:X bottom_grid_top_width_0_height_0_subtile_0__pin_I_8_ 32.14 
*END

*D_NET *4 0.00196589
*CONN
*P ccff_head I
*I *489:A I *D sky130_fd_sc_hd__clkbuf_1
*CAP
1 ccff_head 0.000810034
2 *489:A 0.000810034
3 *489:A ccff_tail 6.22834e-05
4 *489:A chanx_left_out[7] 0.000235941
5 *489:A chanx_left_out[8] 0
6 *489:A *499:A 0
7 *489:A *518:A 3.23663e-05
8 *489:A *520:A 1.52352e-05
*RES
1 ccff_head *489:A 10.7844 
*END

*D_NET *5 0.00265191
*CONN
*P ccff_tail O
*I *511:X O *D sky130_fd_sc_hd__clkbuf_4
*CAP
1 ccff_tail 0.00116071
2 *511:X 0.00116071
3 ccff_tail chanx_left_out[7] 0
4 ccff_tail chanx_left_out[8] 0
5 ccff_tail top_grid_bottom_width_0_height_0_subtile_0__pin_outpad_0_ 4.06436e-05
6 ccff_tail *350:A 4.80121e-06
7 ccff_tail *423:A 9.39355e-05
8 ccff_tail *518:A 0
9 ccff_tail *519:A 1.26626e-05
10 ccff_tail *520:A 0.000116158
11 ccff_tail *146:8 0
12 *489:A ccff_tail 6.22834e-05
*RES
1 *511:X ccff_tail 16.8092 
*END

*D_NET *6 0.00125348
*CONN
*P chanx_left_in[0] I
*I *500:A I *D sky130_fd_sc_hd__buf_1
*CAP
1 chanx_left_in[0] 0.00035516
2 *500:A 0.00035516
3 *500:A *465:TE_B 0.000282024
4 *500:A *477:A 0
5 *500:A *501:A 0
6 *500:A *523:A 9.54504e-06
7 *500:A *525:A 0.000251588
*RES
1 chanx_left_in[0] *500:A 8.6383 
*END

*D_NET *7 0.00459663
*CONN
*P chanx_left_in[1] I
*I *501:A I *D sky130_fd_sc_hd__buf_1
*CAP
1 chanx_left_in[1] 0.00120366
2 *501:A 0.00120366
3 *501:A *352:A 5.65385e-05
4 *501:A *375:A 0.000294661
5 *501:A *412:A 2.05641e-05
6 *501:A *429:A 0.000300186
7 *501:A *439:A 9.17261e-05
8 *501:A *457:TE_B 0
9 *501:A *459:Z 0.000240327
10 *501:A *461:TE_B 0.00034286
11 *501:A *471:A 0.000177912
12 *501:A *502:A 0
13 *501:A *508:A 1.63821e-05
14 *501:A *512:A 4.2657e-05
15 *501:A *524:A 1.75613e-05
16 *501:A *526:A 6.92678e-05
17 *501:A *28:23 2.06819e-05
18 *501:A *100:82 6.1994e-05
19 *501:A *101:34 0.000187672
20 *501:A *175:26 0.000248312
21 *500:A *501:A 0
*RES
1 chanx_left_in[1] *501:A 18.9923 
*END

*D_NET *8 0.000641837
*CONN
*P chanx_left_in[2] I
*I *502:A I *D sky130_fd_sc_hd__buf_1
*CAP
1 chanx_left_in[2] 0.000320918
2 *502:A 0.000320918
3 *502:A *503:A 0
4 *502:A *142:20 0
5 *501:A *502:A 0
*RES
1 chanx_left_in[2] *502:A 8.17043 
*END

*D_NET *9 0.000649277
*CONN
*P chanx_left_in[3] I
*I *503:A I *D sky130_fd_sc_hd__buf_1
*CAP
1 chanx_left_in[3] 0.000324639
2 *503:A 0.000324639
3 *503:A *504:A 0
4 *503:A *142:20 0
5 *502:A *503:A 0
*RES
1 chanx_left_in[3] *503:A 8.17043 
*END

*D_NET *10 0.000713404
*CONN
*P chanx_left_in[4] I
*I *504:A I *D sky130_fd_sc_hd__buf_1
*CAP
1 chanx_left_in[4] 0.00028045
2 *504:A 0.00028045
3 *504:A *505:A 0
4 *504:A *142:20 0.000152503
5 *504:A *188:10 0
6 *503:A *504:A 0
*RES
1 chanx_left_in[4] *504:A 6.63177 
*END

*D_NET *11 0.000675576
*CONN
*P chanx_left_in[5] I
*I *505:A I *D sky130_fd_sc_hd__buf_1
*CAP
1 chanx_left_in[5] 0.000315726
2 *505:A 0.000315726
3 *505:A *403:A 0
4 *505:A *506:A 0
5 *505:A *512:A 4.4123e-05
6 *505:A *188:10 0
7 *504:A *505:A 0
*RES
1 chanx_left_in[5] *505:A 5.86003 
*END

*D_NET *12 0.000765288
*CONN
*P chanx_left_in[6] I
*I *506:A I *D sky130_fd_sc_hd__clkbuf_1
*CAP
1 chanx_left_in[6] 0.000382644
2 *506:A 0.000382644
3 *506:A chanx_left_out[0] 0
4 *506:A *434:A 0
5 *506:A *507:A 0
6 *505:A *506:A 0
*RES
1 chanx_left_in[6] *506:A 8.86043 
*END

*D_NET *13 0.00169499
*CONN
*P chanx_left_in[7] I
*I *507:A I *D sky130_fd_sc_hd__clkbuf_1
*CAP
1 chanx_left_in[7] 0.000731117
2 *507:A 0.000731117
3 *507:A chanx_left_out[1] 0
4 *507:A chanx_left_out[2] 9.43617e-05
5 *507:A *490:A 5.29755e-05
6 *507:A *513:A 0
7 *507:A *514:A 1.32718e-05
8 *507:A *137:14 7.21497e-05
9 *506:A *507:A 0
*RES
1 chanx_left_in[7] *507:A 9.77077 
*END

*D_NET *14 0.00266769
*CONN
*P chanx_left_in[8] I
*I *490:A I *D sky130_fd_sc_hd__buf_1
*CAP
1 chanx_left_in[8] 0.00108241
2 *490:A 0.00108241
3 *490:A chanx_left_out[2] 0.000449906
4 *490:A *513:A 0
5 *507:A *490:A 5.29755e-05
*RES
1 chanx_left_in[8] *490:A 12.7947 
*END

*D_NET *15 0.00149017
*CONN
*P chanx_left_out[0] O
*I *512:X O *D sky130_fd_sc_hd__clkbuf_4
*CAP
1 chanx_left_out[0] 0.000745085
2 *512:X 0.000745085
3 *506:A chanx_left_out[0] 0
*RES
1 *512:X chanx_left_out[0] 15.33 
*END

*D_NET *16 0.00105863
*CONN
*P chanx_left_out[1] O
*I *513:X O *D sky130_fd_sc_hd__clkbuf_4
*CAP
1 chanx_left_out[1] 0.000529315
2 *513:X 0.000529315
3 *507:A chanx_left_out[1] 0
*RES
1 *513:X chanx_left_out[1] 11.82 
*END

*D_NET *17 0.0013289
*CONN
*P chanx_left_out[2] O
*I *514:X O *D sky130_fd_sc_hd__clkbuf_4
*CAP
1 chanx_left_out[2] 0.000334674
2 *514:X 0.000334674
3 chanx_left_out[2] *514:A 5.30673e-05
4 chanx_left_out[2] *137:14 6.22185e-05
5 *490:A chanx_left_out[2] 0.000449906
6 *507:A chanx_left_out[2] 9.43617e-05
*RES
1 *514:X chanx_left_out[2] 11.82 
*END

*D_NET *18 0.00103529
*CONN
*P chanx_left_out[3] O
*I *515:X O *D sky130_fd_sc_hd__clkbuf_4
*CAP
1 chanx_left_out[3] 0.000469506
2 *515:X 0.000469506
3 chanx_left_out[3] *137:14 9.62768e-05
*RES
1 *515:X chanx_left_out[3] 11.82 
*END

*D_NET *19 0.00107905
*CONN
*P chanx_left_out[4] O
*I *516:X O *D sky130_fd_sc_hd__clkbuf_4
*CAP
1 chanx_left_out[4] 0.000441024
2 *516:X 0.000441024
3 chanx_left_out[4] *516:A 3.05373e-05
4 chanx_left_out[4] *517:A 5.83121e-06
5 chanx_left_out[4] *137:14 0.000160635
*RES
1 *516:X chanx_left_out[4] 11.895 
*END

*D_NET *20 0.000894025
*CONN
*P chanx_left_out[5] O
*I *517:X O *D sky130_fd_sc_hd__clkbuf_4
*CAP
1 chanx_left_out[5] 0.000417948
2 *517:X 0.000417948
3 chanx_left_out[5] *517:A 5.30673e-05
4 chanx_left_out[5] *137:14 5.062e-06
*RES
1 *517:X chanx_left_out[5] 10.53 
*END

*D_NET *21 0.00106639
*CONN
*P chanx_left_out[6] O
*I *518:X O *D sky130_fd_sc_hd__clkbuf_4
*CAP
1 chanx_left_out[6] 0.000465179
2 *518:X 0.000465179
3 chanx_left_out[6] *518:A 8.77498e-05
4 chanx_left_out[6] *137:14 4.82863e-05
*RES
1 *518:X chanx_left_out[6] 11.895 
*END

*D_NET *22 0.0011711
*CONN
*P chanx_left_out[7] O
*I *519:X O *D sky130_fd_sc_hd__clkbuf_4
*CAP
1 chanx_left_out[7] 0.000404129
2 *519:X 0.000404129
3 chanx_left_out[7] *518:A 5.88865e-05
4 chanx_left_out[7] *520:A 6.80137e-05
5 ccff_tail chanx_left_out[7] 0
6 *489:A chanx_left_out[7] 0.000235941
*RES
1 *519:X chanx_left_out[7] 11.82 
*END

*D_NET *23 0.000977483
*CONN
*P chanx_left_out[8] O
*I *520:X O *D sky130_fd_sc_hd__clkbuf_4
*CAP
1 chanx_left_out[8] 0.000463579
2 *520:X 0.000463579
3 chanx_left_out[8] *499:A 3.09179e-05
4 chanx_left_out[8] *518:A 8.53113e-06
5 chanx_left_out[8] *520:A 1.08758e-05
6 ccff_tail chanx_left_out[8] 0
7 *489:A chanx_left_out[8] 0
*RES
1 *520:X chanx_left_out[8] 11.205 
*END

*D_NET *24 0.00275974
*CONN
*P chanx_right_in[0] I
*I *491:A I *D sky130_fd_sc_hd__buf_1
*CAP
1 chanx_right_in[0] 0.000958961
2 *491:A 0.000958961
3 *491:A *470:TE_B 4.94404e-05
4 *491:A *492:A 0
5 *491:A *509:A 0
6 *491:A *131:14 0.000274334
7 *491:A *138:28 0.000298889
8 bottom_grid_top_width_0_height_0_subtile_0__pin_I_0_ *491:A 0
9 bottom_grid_top_width_0_height_0_subtile_0__pin_I_4_ *491:A 0.000219157
*RES
1 chanx_right_in[0] *491:A 17.7692 
*END

*D_NET *25 0.00617931
*CONN
*P chanx_right_in[1] I
*I *492:A I *D sky130_fd_sc_hd__buf_1
*CAP
1 chanx_right_in[1] 0.0016556
2 *492:A 0.0016556
3 *492:A *393:A 0.000287323
4 *492:A *415:D 0.000163676
5 *492:A *470:TE_B 3.39151e-05
6 *492:A *476:TE_B 0.000413307
7 *492:A *493:A 0
8 *492:A *96:10 0.000647112
9 *492:A *96:70 0.000164896
10 *492:A *116:16 7.06865e-05
11 *492:A *137:14 0
12 bottom_grid_top_width_0_height_0_subtile_0__pin_I_0_ *492:A 0.00108719
13 *491:A *492:A 0
*RES
1 chanx_right_in[1] *492:A 33.1073 
*END

*D_NET *26 0.00495163
*CONN
*P chanx_right_in[2] I
*I *493:A I *D sky130_fd_sc_hd__buf_1
*CAP
1 chanx_right_in[2] 0.0021018
2 *493:A 0.0021018
3 *493:A *420:CLK 3.09445e-05
4 *493:A *420:D 7.69907e-05
5 *493:A *471:A 0.000102309
6 *493:A *474:A 0.000356361
7 *493:A *478:A 3.98155e-05
8 *493:A *494:A 0
9 *493:A *138:28 0
10 *493:A *140:16 9.43195e-05
11 bottom_grid_top_width_0_height_0_subtile_0__pin_I_8_ *493:A 4.72993e-05
12 *492:A *493:A 0
*RES
1 chanx_right_in[2] *493:A 14.4946 
*END

*D_NET *27 0.00606266
*CONN
*P chanx_right_in[3] I
*I *494:A I *D sky130_fd_sc_hd__buf_1
*CAP
1 chanx_right_in[3] 0.00174213
2 *494:A 0.00174213
3 *494:A *352:A 0.000402622
4 *494:A *369:A 0.000497081
5 *494:A *409:A 8.65961e-05
6 *494:A *455:TE_B 0
7 *494:A *457:Z 4.43682e-05
8 *494:A *474:A 0.000196316
9 *494:A *510:A 0.000172394
10 *494:A *526:A 3.82018e-05
11 *494:A *28:23 0.000237898
12 *494:A *175:26 0.000902913
13 *493:A *494:A 0
*RES
1 chanx_right_in[3] *494:A 13.8495 
*END

*D_NET *28 0.00985202
*CONN
*P chanx_right_in[4] I
*I *495:A I *D sky130_fd_sc_hd__buf_1
*I *193:DIODE I *D sky130_fd_sc_hd__diode_2
*CAP
1 chanx_right_in[4] 0.00282854
2 *495:A 1.91246e-05
3 *193:DIODE 5.42893e-05
4 *28:23 0.00290196
5 *193:DIODE *142:20 0.000120921
6 *495:A *411:A 3.21081e-06
7 *28:23 *352:A 0.00224836
8 *28:23 *411:A 5.06989e-05
9 *28:23 *412:A 0.000875298
10 *28:23 *429:A 3.03482e-05
11 *28:23 *462:TE_B 0.000207148
12 *28:23 *465:A 0
13 *28:23 *478:A 1.39421e-05
14 *28:23 *496:A 0
15 *28:23 *123:12 0.000135197
16 *28:23 *142:20 8.64421e-05
17 *28:23 *175:26 1.79536e-05
18 *494:A *28:23 0.000237898
19 *501:A *28:23 2.06819e-05
*RES
1 chanx_right_in[4] *28:23 14.2069 
2 *28:23 *193:DIODE 2.74 
3 *28:23 *495:A 1.96 
*END

*D_NET *29 0.00469
*CONN
*P chanx_right_in[5] I
*I *496:A I *D sky130_fd_sc_hd__buf_1
*CAP
1 chanx_right_in[5] 0.00203012
2 *496:A 0.00203012
3 *496:A *357:A 5.901e-05
4 *496:A *395:A 1.37328e-05
5 *496:A *412:A 0
6 *496:A *432:A 6.73751e-05
7 *496:A *441:TE_B 0
8 *496:A *446:Z 0.000207643
9 *496:A *452:A 4.89295e-05
10 *496:A *467:TE_B 0
11 *496:A *472:A 0.000122337
12 *496:A *472:TE_B 2.39948e-05
13 *496:A *481:A 3.47837e-05
14 *496:A *497:A 0
15 *496:A *115:8 0
16 *496:A *116:16 4.77719e-05
17 *496:A *137:14 4.18603e-06
18 *28:23 *496:A 0
*RES
1 chanx_right_in[5] *496:A 19.3084 
*END

*D_NET *30 0.000710479
*CONN
*P chanx_right_in[6] I
*I *497:A I *D sky130_fd_sc_hd__clkbuf_1
*CAP
1 chanx_right_in[6] 0.00035524
2 *497:A 0.00035524
3 *497:A *432:A 0
4 *497:A *498:A 0
5 *497:A *151:31 0
6 *496:A *497:A 0
*RES
1 chanx_right_in[6] *497:A 7.8837 
*END

*D_NET *31 0.00140408
*CONN
*P chanx_right_in[7] I
*I *498:A I *D sky130_fd_sc_hd__clkbuf_1
*CAP
1 chanx_right_in[7] 0.000553041
2 *498:A 0.000553041
3 *498:A *394:A 8.52845e-05
4 *498:A *424:A 1.75875e-05
5 *498:A *446:A 4.88478e-05
6 *498:A *499:A 0
7 *498:A *518:A 0.000146281
8 *497:A *498:A 0
*RES
1 chanx_right_in[7] *498:A 7.88137 
*END

*D_NET *32 0.00141833
*CONN
*P chanx_right_in[8] I
*I *499:A I *D sky130_fd_sc_hd__buf_1
*CAP
1 chanx_right_in[8] 0.000646254
2 *499:A 0.000646254
3 *499:A top_grid_bottom_width_0_height_0_subtile_0__pin_outpad_0_ 0
4 *499:A *518:A 0
5 *499:A *520:A 9.49063e-05
6 chanx_left_out[8] *499:A 3.09179e-05
7 *489:A *499:A 0
8 *498:A *499:A 0
*RES
1 chanx_right_in[8] *499:A 10.2168 
*END

*D_NET *33 0.00202751
*CONN
*P chanx_right_out[0] O
*I *521:X O *D sky130_fd_sc_hd__clkbuf_4
*CAP
1 chanx_right_out[0] 0.00100806
2 *521:X 0.00100806
3 chanx_right_out[0] chanx_right_out[1] 0
4 chanx_right_out[0] *521:A 1.1392e-05
*RES
1 *521:X chanx_right_out[0] 20.1 
*END

*D_NET *34 0.00212408
*CONN
*P chanx_right_out[1] O
*I *522:X O *D sky130_fd_sc_hd__clkbuf_4
*CAP
1 chanx_right_out[1] 0.000780822
2 *522:X 0.000780822
3 chanx_right_out[1] chanx_right_out[2] 0
4 chanx_right_out[1] *465:TE_B 0.000125028
5 chanx_right_out[1] *522:A 1.1392e-05
6 chanx_right_out[1] *523:A 0
7 chanx_right_out[1] *142:20 0.000426014
8 chanx_right_out[0] chanx_right_out[1] 0
*RES
1 *522:X chanx_right_out[1] 18.69 
*END

*D_NET *35 0.000788579
*CONN
*P chanx_right_out[2] O
*I *523:X O *D sky130_fd_sc_hd__clkbuf_4
*CAP
1 chanx_right_out[2] 0.000394289
2 *523:X 0.000394289
3 chanx_right_out[2] chanx_right_out[3] 0
4 chanx_right_out[2] *470:TE_B 0
5 chanx_right_out[1] chanx_right_out[2] 0
*RES
1 *523:X chanx_right_out[2] 10.545 
*END

*D_NET *36 0.00081031
*CONN
*P chanx_right_out[3] O
*I *524:X O *D sky130_fd_sc_hd__clkbuf_4
*CAP
1 chanx_right_out[3] 0.000405155
2 *524:X 0.000405155
3 chanx_right_out[3] chanx_right_out[4] 0
4 chanx_right_out[3] *470:TE_B 0
5 chanx_right_out[2] chanx_right_out[3] 0
*RES
1 *524:X chanx_right_out[3] 10.185 
*END

*D_NET *37 0.00105579
*CONN
*P chanx_right_out[4] O
*I *525:X O *D sky130_fd_sc_hd__clkbuf_4
*CAP
1 chanx_right_out[4] 0.000493272
2 *525:X 0.000493272
3 chanx_right_out[4] chanx_right_out[5] 0
4 chanx_right_out[4] *455:A 1.61831e-05
5 chanx_right_out[4] *525:A 5.30673e-05
6 chanx_right_out[3] chanx_right_out[4] 0
*RES
1 *525:X chanx_right_out[4] 11.535 
*END

*D_NET *38 0.000752692
*CONN
*P chanx_right_out[5] O
*I *526:X O *D sky130_fd_sc_hd__clkbuf_4
*CAP
1 chanx_right_out[5] 0.000376346
2 *526:X 0.000376346
3 chanx_right_out[5] chanx_right_out[6] 0
4 chanx_right_out[4] chanx_right_out[5] 0
*RES
1 *526:X chanx_right_out[5] 9.84 
*END

*D_NET *39 0.00305738
*CONN
*P chanx_right_out[6] O
*I *527:X O *D sky130_fd_sc_hd__clkbuf_4
*CAP
1 chanx_right_out[6] 0.000883078
2 *527:X 0.000883078
3 chanx_right_out[6] chanx_right_out[7] 0
4 chanx_right_out[6] *354:A 0.000134499
5 chanx_right_out[6] *355:A 0.000461149
6 chanx_right_out[6] *401:A 0.000111176
7 chanx_right_out[6] *420:D 0.000123955
8 chanx_right_out[6] *454:A 0
9 chanx_right_out[6] *454:TE_B 5.15147e-05
10 chanx_right_out[6] *454:Z 0.000360638
11 chanx_right_out[6] *477:A 0
12 chanx_right_out[6] *480:A 4.82919e-05
13 chanx_right_out[5] chanx_right_out[6] 0
*RES
1 *527:X chanx_right_out[6] 22.845 
*END

*D_NET *40 0.000774979
*CONN
*P chanx_right_out[7] O
*I *528:X O *D sky130_fd_sc_hd__clkbuf_4
*CAP
1 chanx_right_out[7] 0.000304073
2 *528:X 0.000304073
3 chanx_right_out[7] chanx_right_out[8] 0
4 chanx_right_out[7] *477:A 0.000166833
5 chanx_right_out[6] chanx_right_out[7] 0
*RES
1 *528:X chanx_right_out[7] 9.945 
*END

*D_NET *41 0.00266886
*CONN
*P chanx_right_out[8] O
*I *529:X O *D sky130_fd_sc_hd__clkbuf_4
*CAP
1 chanx_right_out[8] 0.0010565
2 *529:X 0.0010565
3 chanx_right_out[8] *471:A 3.96657e-05
4 chanx_right_out[8] *471:TE_B 0.000109786
5 chanx_right_out[8] *103:14 0.000121815
6 bottom_grid_top_width_0_height_0_subtile_0__pin_I_0_ chanx_right_out[8] 0
7 bottom_grid_top_width_0_height_0_subtile_0__pin_I_8_ chanx_right_out[8] 0.0002846
8 chanx_right_out[7] chanx_right_out[8] 0
*RES
1 *529:X chanx_right_out[8] 19.68 
*END

*D_NET *42 0.00592782
*CONN
*P prog_clk I
*I *477:A I *D sky130_fd_sc_hd__clkbuf_16
*CAP
1 prog_clk 0.00200755
2 *477:A 0.00200755
3 *477:A *399:A 0.000103521
4 *477:A *443:Z 5.85498e-05
5 *477:A *451:A 2.27778e-05
6 *477:A *454:TE_B 2.50049e-05
7 *477:A *528:A 0.000867452
8 *477:A *112:8 9.02174e-05
9 *477:A *138:28 0.000578358
10 chanx_right_out[6] *477:A 0
11 chanx_right_out[7] *477:A 0.000166833
12 *500:A *477:A 0
*RES
1 prog_clk *477:A 23.7362 
*END

*D_NET *43 0.00179531
*CONN
*P top_grid_bottom_width_0_height_0_subtile_0__pin_outpad_0_ O
*I *530:X O *D sky130_fd_sc_hd__clkbuf_4
*CAP
1 top_grid_bottom_width_0_height_0_subtile_0__pin_outpad_0_ 0.000824529
2 *530:X 0.000824529
3 top_grid_bottom_width_0_height_0_subtile_0__pin_outpad_0_ *350:A 8.51941e-05
4 top_grid_bottom_width_0_height_0_subtile_0__pin_outpad_0_ *423:A 2.04101e-05
5 ccff_tail top_grid_bottom_width_0_height_0_subtile_0__pin_outpad_0_ 4.06436e-05
6 *499:A top_grid_bottom_width_0_height_0_subtile_0__pin_outpad_0_ 0
*RES
1 *530:X top_grid_bottom_width_0_height_0_subtile_0__pin_outpad_0_ 17.94 
*END

*D_NET *46 0.00553231
*CONN
*I *369:A I *D sky130_fd_sc_hd__clkbuf_1
*I *368:X O *D sky130_fd_sc_hd__clkbuf_1
*CAP
1 *369:A 0.00234911
2 *368:X 0.00234911
3 *369:A *352:A 0.000144636
4 *369:A *358:A 2.56728e-05
5 *369:A *375:A 1.17114e-05
6 *369:A *457:Z 3.29987e-05
7 *369:A *510:A 1.34503e-05
8 *369:A *524:A 5.62434e-05
9 *369:A *95:10 0
10 *369:A *175:26 5.2292e-05
11 *494:A *369:A 0.000497081
*RES
1 *368:X *369:A 20.0841 
*END

*D_NET *47 0.000485491
*CONN
*I *373:A I *D sky130_fd_sc_hd__clkbuf_1
*I *372:X O *D sky130_fd_sc_hd__clkbuf_1
*CAP
1 *373:A 9.56659e-05
2 *372:X 9.56659e-05
3 *373:A *372:A 8.23457e-05
4 *373:A *455:TE_B 6.80102e-05
5 *373:A *458:TE_B 8.46717e-05
6 *373:A *100:63 3.11409e-05
7 *373:A *101:51 4.00541e-06
8 *373:A *158:14 2.39856e-05
*RES
1 *372:X *373:A 5.75 
*END

*D_NET *48 0.00235153
*CONN
*I *375:A I *D sky130_fd_sc_hd__clkbuf_1
*I *374:X O *D sky130_fd_sc_hd__clkbuf_1
*CAP
1 *375:A 0.000589242
2 *374:X 0.000589242
3 *375:A *364:A 0.000288023
4 *375:A *514:A 0.000144184
5 *375:A *101:34 7.9642e-06
6 *375:A *142:20 8.43862e-05
7 *375:A *187:10 0.000342118
8 *369:A *375:A 1.17114e-05
9 *501:A *375:A 0.000294661
*RES
1 *374:X *375:A 17.505 
*END

*D_NET *49 0.00156186
*CONN
*I *380:A I *D sky130_fd_sc_hd__clkbuf_1
*I *379:X O *D sky130_fd_sc_hd__clkbuf_1
*CAP
1 *380:A 0.000319085
2 *379:X 0.000319085
3 *380:A *377:A 2.10152e-05
4 *380:A *382:A 9.58457e-05
5 *380:A *413:CLK 1.16578e-05
6 *380:A *414:D 2.8585e-06
7 *380:A *447:TE_B 4.05358e-05
8 *380:A *528:A 0.000466572
9 *380:A *97:50 8.23457e-05
10 *380:A *98:14 0.000202855
*RES
1 *379:X *380:A 14.835 
*END

*D_NET *50 0.000295099
*CONN