*SPEF "ieee 1481-1999"
*DESIGN "cbx_1__10_"
*DATE "11:11:11 Fri 11 11, 1111"
*VENDOR "OpenRCX"
*PROGRAM "Parallel Extraction"
*VERSION "1.0"
*DESIGN_FLOW "NAME_SCOPE LOCAL" "PIN_CAP NONE"
*DIVIDER /
*DELIMITER :
*BUS_DELIMITER []
*T_UNIT 1 NS
*C_UNIT 1 PF
*R_UNIT 1 OHM
*L_UNIT 1 HENRY

*NAME_MAP
*1 bottom_grid_top_width_0_height_0_subtile_0__pin_I_0_
*2 bottom_grid_top_width_0_height_0_subtile_0__pin_I_4_
*3 bottom_grid_top_width_0_height_0_subtile_0__pin_I_8_
*4 ccff_head
*5 ccff_tail
*6 chanx_left_in[0]
*7 chanx_left_in[1]
*8 chanx_left_in[2]
*9 chanx_left_in[3]
*10 chanx_left_in[4]
*11 chanx_left_in[5]
*12 chanx_left_in[6]
*13 chanx_left_in[7]
*14 chanx_left_in[8]
*15 chanx_left_out[0]
*16 chanx_left_out[1]
*17 chanx_left_out[2]
*18 chanx_left_out[3]
*19 chanx_left_out[4]
*20 chanx_left_out[5]
*21 chanx_left_out[6]
*22 chanx_left_out[7]
*23 chanx_left_out[8]
*24 chanx_right_in[0]
*25 chanx_right_in[1]
*26 chanx_right_in[2]
*27 chanx_right_in[3]
*28 chanx_right_in[4]
*29 chanx_right_in[5]
*30 chanx_right_in[6]
*31 chanx_right_in[7]
*32 chanx_right_in[8]
*33 chanx_right_out[0]
*34 chanx_right_out[1]
*35 chanx_right_out[2]
*36 chanx_right_out[3]
*37 chanx_right_out[4]
*38 chanx_right_out[5]
*39 chanx_right_out[6]
*40 chanx_right_out[7]
*41 chanx_right_out[8]
*42 prog_clk
*43 top_grid_bottom_width_0_height_0_subtile_0__pin_outpad_0_
*46 _000_
*47 _001_
*48 _002_
*49 _003_
*50 _004_
*51 _005_
*52 _006_
*53 _007_
*54 _008_
*55 _009_
*56 _010_
*57 _011_
*58 _012_
*59 _013_
*60 _014_
*61 _015_
*62 _016_
*63 _017_
*64 _018_
*65 _019_
*66 _020_
*67 _021_
*68 _022_
*69 _023_
*70 _024_
*71 _025_
*72 _026_
*73 _027_
*74 _028_
*75 _029_
*76 _030_
*77 _031_
*78 _032_
*79 _033_
*80 _034_
*81 _035_
*82 _036_
*83 _037_
*84 _038_
*85 _039_
*86 _040_
*87 _041_
*88 _042_
*89 _043_
*90 _044_
*91 _045_
*92 _046_
*93 _047_
*94 clknet_0_prog_clk
*95 clknet_1_0__leaf_prog_clk
*96 clknet_1_1__leaf_prog_clk
*97 mem_bottom_ipin_0\.DFF_0_\.Q
*98 mem_bottom_ipin_0\.DFF_1_\.Q
*99 mem_bottom_ipin_0\.DFF_2_\.Q
*100 mem_top_ipin_0\.DFF_0_\.Q
*101 mem_top_ipin_0\.DFF_1_\.Q
*102 mem_top_ipin_0\.DFF_2_\.Q
*103 mem_top_ipin_1\.DFF_0_\.Q
*104 mem_top_ipin_1\.DFF_1_\.Q
*105 mem_top_ipin_2\.DFF_0_\.Q
*106 mux_bottom_ipin_0\.INVTX1_0_\.out
*107 mux_bottom_ipin_0\.INVTX1_1_\.out
*108 mux_bottom_ipin_0\.INVTX1_2_\.out
*109 mux_bottom_ipin_0\.INVTX1_3_\.out
*110 mux_bottom_ipin_0\.INVTX1_4_\.out
*111 mux_bottom_ipin_0\.INVTX1_5_\.out
*112 mux_bottom_ipin_0\.mux_l1_in_0_\.TGATE_0_\.out
*113 mux_bottom_ipin_0\.mux_l1_in_1_\.TGATE_0_\.out
*114 mux_bottom_ipin_0\.mux_l1_in_2_\.TGATE_0_\.out
*115 mux_bottom_ipin_0\.mux_l2_in_0_\.TGATE_0_\.out
*116 mux_bottom_ipin_0\.mux_l2_in_1_\.TGATE_0_\.out
*117 mux_bottom_ipin_0\.mux_l3_in_0_\.TGATE_0_\.out
*118 mux_top_ipin_0\.INVTX1_2_\.out
*119 mux_top_ipin_0\.INVTX1_3_\.out
*120 mux_top_ipin_0\.INVTX1_4_\.out
*121 mux_top_ipin_0\.INVTX1_5_\.out
*122 mux_top_ipin_0\.mux_l1_in_0_\.TGATE_0_\.out
*123 mux_top_ipin_0\.mux_l1_in_1_\.TGATE_0_\.out
*124 mux_top_ipin_0\.mux_l1_in_2_\.TGATE_0_\.out
*125 mux_top_ipin_0\.mux_l2_in_0_\.TGATE_0_\.out
*126 mux_top_ipin_0\.mux_l2_in_1_\.TGATE_0_\.out
*127 mux_top_ipin_0\.mux_l3_in_0_\.TGATE_0_\.out
*128 mux_top_ipin_1\.INVTX1_0_\.out
*129 mux_top_ipin_1\.INVTX1_1_\.out
*130 mux_top_ipin_1\.mux_l1_in_0_\.TGATE_0_\.out
*131 mux_top_ipin_1\.mux_l2_in_0_\.TGATE_0_\.out
*132 mux_top_ipin_2\.INVTX1_0_\.out
*133 mux_top_ipin_2\.INVTX1_1_\.out
*134 mux_top_ipin_2\.mux_l1_in_0_\.TGATE_0_\.out
*135 mux_top_ipin_2\.mux_l2_in_0_\.TGATE_0_\.out
*136 net1
*137 net10
*138 net11
*139 net12
*140 net13
*141 net14
*142 net15
*143 net16
*144 net17
*145 net18
*146 net19
*147 net2
*148 net20
*149 net21
*150 net22
*151 net23
*152 net24
*153 net25
*154 net26
*155 net27
*156 net28
*157 net29
*158 net3
*159 net30
*160 net31
*161 net32
*162 net33
*163 net34
*164 net35
*165 net36
*166 net37
*167 net38
*168 net39
*169 net4
*170 net40
*171 net41
*172 net42
*173 net43
*174 net44
*175 net45
*176 net46
*177 net47
*178 net48
*179 net49
*180 net5
*181 net50
*182 net51
*183 net52
*184 net53
*185 net54
*186 net55
*187 net6
*188 net7
*189 net8
*190 net9
*191 ANTENNA_1
*192 ANTENNA_2
*193 ANTENNA_3
*194 FILLER_0_0_29
*195 FILLER_0_0_3
*196 FILLER_0_0_39
*197 FILLER_0_0_57
*198 FILLER_0_10_15
*199 FILLER_0_10_27
*200 FILLER_0_10_29
*201 FILLER_0_10_3
*202 FILLER_0_10_41
*203 FILLER_0_10_50
*204 FILLER_0_10_56
*205 FILLER_0_10_82
*206 FILLER_0_10_85
*207 FILLER_0_11_101
*208 FILLER_0_11_18
*209 FILLER_0_11_30
*210 FILLER_0_11_42
*211 FILLER_0_11_47
*212 FILLER_0_11_55
*213 FILLER_0_11_57
*214 FILLER_0_11_6
*215 FILLER_0_11_69
*216 FILLER_0_11_74
*217 FILLER_0_11_82
*218 FILLER_0_12_13
*219 FILLER_0_12_25
*220 FILLER_0_12_29
*221 FILLER_0_12_40
*222 FILLER_0_12_52
*223 FILLER_0_12_57
*224 FILLER_0_12_69
*225 FILLER_0_12_81
*226 FILLER_0_12_85
*227 FILLER_0_12_9
*228 FILLER_0_13_20
*229 FILLER_0_13_27
*230 FILLER_0_13_29
*231 FILLER_0_13_33
*232 FILLER_0_13_40
*233 FILLER_0_13_46
*234 FILLER_0_13_53
*235 FILLER_0_13_57
*236 FILLER_0_13_6
*237 FILLER_0_13_66
*238 FILLER_0_13_72
*239 FILLER_0_13_79
*240 FILLER_0_13_85
*241 FILLER_0_13_92
*242 FILLER_0_1_102
*243 FILLER_0_1_3
*244 FILLER_0_1_52
*245 FILLER_0_1_8
*246 FILLER_0_2_102
*247 FILLER_0_2_11
*248 FILLER_0_2_15
*249 FILLER_0_2_29
*250 FILLER_0_2_3
*251 FILLER_0_2_56
*252 FILLER_0_2_82
*253 FILLER_0_2_85
*254 FILLER_0_2_91
*255 FILLER_0_3_101
*256 FILLER_0_3_12
*257 FILLER_0_3_29
*258 FILLER_0_3_74
*259 FILLER_0_3_83
*260 FILLER_0_4_40
*261 FILLER_0_4_9
*262 FILLER_0_4_93
*263 FILLER_0_5_101
*264 FILLER_0_5_11
*265 FILLER_0_5_21
*266 FILLER_0_5_40
*267 FILLER_0_5_6
*268 FILLER_0_5_77
*269 FILLER_0_6_101
*270 FILLER_0_6_26
*271 FILLER_0_6_3
*272 FILLER_0_6_45
*273 FILLER_0_6_83
*274 FILLER_0_6_91
*275 FILLER_0_7_101
*276 FILLER_0_7_28
*277 FILLER_0_7_46
*278 FILLER_0_7_57
*279 FILLER_0_7_9
*280 FILLER_0_8_102
*281 FILLER_0_8_22
*282 FILLER_0_8_29
*283 FILLER_0_8_3
*284 FILLER_0_8_59
*285 FILLER_0_8_71
*286 FILLER_0_8_8
*287 FILLER_0_8_82
*288 FILLER_0_9_21
*289 FILLER_0_9_33
*290 FILLER_0_9_55
*291 FILLER_0_9_57
*292 FILLER_0_9_9
*293 FILLER_0_9_93
*294 FILLER_0_9_98
*295 PHY_0
*296 PHY_1
*297 PHY_10
*298 PHY_11
*299 PHY_12
*300 PHY_13
*301 PHY_14
*302 PHY_15
*303 PHY_16
*304 PHY_17
*305 PHY_18
*306 PHY_19
*307 PHY_2
*308 PHY_20
*309 PHY_21
*310 PHY_22
*311 PHY_23
*312 PHY_24
*313 PHY_25
*314 PHY_26
*315 PHY_27
*316 PHY_3
*317 PHY_4
*318 PHY_5
*319 PHY_6
*320 PHY_7
*321 PHY_8
*322 PHY_9
*323 TAP_28
*324 TAP_29
*325 TAP_30
*326 TAP_31
*327 TAP_32
*328 TAP_33
*329 TAP_34
*330 TAP_35
*331 TAP_36
*332 TAP_37
*333 TAP_38
*334 TAP_39
*335 TAP_40
*336 TAP_41
*337 TAP_42
*338 TAP_43
*339 TAP_44
*340 TAP_45
*341 TAP_46
*342 TAP_47
*343 TAP_48
*344 TAP_49
*345 TAP_50
*346 TAP_51
*347 _052_
*348 _053_
*349 _054_
*350 _055_
*351 _056_
*352 _057_
*353 _058_
*354 _059_
*355 _060_
*356 _061_
*357 _062_
*358 _063_
*359 _064_
*360 _065_
*361 _066_
*362 _067_
*363 _068_
*364 _069_
*365 _070_
*366 _071_
*367 _072_
*368 _073_
*369 _074_
*370 _075_
*371 _076_
*372 _077_
*373 _078_
*374 _079_
*375 _080_
*376 _081_
*377 _082_
*378 _083_
*379 _084_
*380 _085_
*381 _086_
*382 _087_
*383 _088_
*384 _089_
*385 _090_
*386 _091_
*387 _092_
*388 _093_
*389 _094_
*390 _095_
*391 _096_
*392 _097_
*393 _098_
*394 _099_
*395 _100_
*396 _101_
*397 _102_
*398 _103_
*399 _104_
*400 _105_
*401 _106_
*402 _107_
*403 _108_
*404 _109_
*405 _110_
*406 _111_
*407 _112_
*408 _113_
*409 _114_
*410 _115_
*411 _116_
*412 _117_
*413 _118_
*414 _119_
*415 _120_
*416 _121_
*417 _122_
*418 _123_
*419 _124_
*420 _125_
*421 _126_
*422 _127_
*423 _132_
*424 _133_
*425 _134_
*426 _135_
*427 _136_
*428 _137_
*429 _138_
*430 _139_
*431 _140_
*432 _141_
*433 _142_
*434 _143_
*435 _144_
*436 _145_
*437 _146_
*438 _147_
*439 _148_
*440 _149_
*441 _150_
*442 _150__43
*443 _151_
*444 _152_
*445 _153_
*446 _154_
*447 _155_
*448 _156_
*449 _157_
*450 _158_
*451 _159_
*452 _160_
*453 _161_
*454 _162_
*455 _163_
*456 _163__44
*457 _164_
*458 _165_
*459 _166_
*460 _167_
*461 _168_
*462 _169_
*463 _170_
*464 _171_
*465 _172_
*466 _173_
*467 _174_
*468 _174__45
*469 _175_
*470 _176_
*471 _177_
*472 _178_
*473 _178__46
*474 _179_
*475 _180_
*476 _181_
*477 clkbuf_0_prog_clk
*478 clkbuf_1_0__f_prog_clk
*479 clkbuf_1_1__f_prog_clk
*480 hold1
*481 hold2
*482 hold3
*483 hold4
*484 hold5
*485 hold6
*486 hold7
*487 hold8
*488 hold9
*489 input1
*490 input10
*491 input11
*492 input12
*493 input13
*494 input14
*495 input15
*496 input16
*497 input17
*498 input18
*499 input19
*500 input2
*501 input3
*502 input4
*503 input5
*504 input6
*505 input7
*506 input8
*507 input9
*508 output20
*509 output21
*510 output22
*511 output23
*512 output24
*513 output25
*514 output26
*515 output27
*516 output28
*517 output29
*518 output30
*519 output31
*520 output32
*521 output33
*522 output34
*523 output35
*524 output36
*525 output37
*526 output38
*527 output39
*528 output40
*529 output41
*530 output42

*PORTS
bottom_grid_top_width_0_height_0_subtile_0__pin_I_0_ O
bottom_grid_top_width_0_height_0_subtile_0__pin_I_4_ O
bottom_grid_top_width_0_height_0_subtile_0__pin_I_8_ O
ccff_head I
ccff_tail O
chanx_left_in[0] I
chanx_left_in[1] I
chanx_left_in[2] I
chanx_left_in[3] I
chanx_left_in[4] I
chanx_left_in[5] I
chanx_left_in[6] I
chanx_left_in[7] I
chanx_left_in[8] I
chanx_left_out[0] O
chanx_left_out[1] O
chanx_left_out[2] O
chanx_left_out[3] O
chanx_left_out[4] O
chanx_left_out[5] O
chanx_left_out[6] O
chanx_left_out[7] O
chanx_left_out[8] O
chanx_right_in[0] I
chanx_right_in[1] I
chanx_right_in[2] I
chanx_right_in[3] I
chanx_right_in[4] I
chanx_right_in[5] I
chanx_right_in[6] I
chanx_right_in[7] I
chanx_right_in[8] I
chanx_right_out[0] O
chanx_right_out[1] O
chanx_right_out[2] O
chanx_right_out[3] O
chanx_right_out[4] O
chanx_right_out[5] O
chanx_right_out[6] O
chanx_right_out[7] O
chanx_right_out[8] O
prog_clk I
top_grid_bottom_width_0_height_0_subtile_0__pin_outpad_0_ O

*D_NET *1 0.00517279
*CONN
*P bottom_grid_top_width_0_height_0_subtile_0__pin_I_0_ O
*I *508:X O *D sky130_fd_sc_hd__clkbuf_4
*CAP
1 bottom_grid_top_width_0_height_0_subtile_0__pin_I_0_ 0.00115164
2 *508:X 0.000528633
3 *1:8 0.00168027
4 bottom_grid_top_width_0_height_0_subtile_0__pin_I_0_ chanx_right_out[8] 0
5 bottom_grid_top_width_0_height_0_subtile_0__pin_I_0_ *24:15 0
6 bottom_grid_top_width_0_height_0_subtile_0__pin_I_0_ *25:15 0.00127457
7 bottom_grid_top_width_0_height_0_subtile_0__pin_I_0_ *89:12 0
8 bottom_grid_top_width_0_height_0_subtile_0__pin_I_0_ *96:28 0
9 bottom_grid_top_width_0_height_0_subtile_0__pin_I_0_ *103:12 0
10 bottom_grid_top_width_0_height_0_subtile_0__pin_I_0_ *179:10 0.000162803
11 bottom_grid_top_width_0_height_0_subtile_0__pin_I_0_ *182:8 0.000112604
12 *1:8 *508:A 0.000163717
13 *1:8 *96:18 9.41704e-05
14 *1:8 *151:8 4.38068e-06
*RES
1 *508:X *1:8 44.815 
2 *1:8 bottom_grid_top_width_0_height_0_subtile_0__pin_I_0_ 24.6086 
*END

*D_NET *2 0.00119875
*CONN
*P bottom_grid_top_width_0_height_0_subtile_0__pin_I_4_ O
*I *509:X O *D sky130_fd_sc_hd__clkbuf_4
*CAP
1 bottom_grid_top_width_0_height_0_subtile_0__pin_I_4_ 0.000422464
2 *509:X 0.000422464
3 bottom_grid_top_width_0_height_0_subtile_0__pin_I_4_ bottom_grid_top_width_0_height_0_subtile_0__pin_I_8_ 0
4 bottom_grid_top_width_0_height_0_subtile_0__pin_I_4_ *24:15 0.000218373
5 bottom_grid_top_width_0_height_0_subtile_0__pin_I_4_ *138:24 0.000135447
*RES
1 *509:X bottom_grid_top_width_0_height_0_subtile_0__pin_I_4_ 48.0464 
*END

*D_NET *3 0.00452476
*CONN
*P bottom_grid_top_width_0_height_0_subtile_0__pin_I_8_ O
*I *510:X O *D sky130_fd_sc_hd__clkbuf_4
*CAP
1 bottom_grid_top_width_0_height_0_subtile_0__pin_I_8_ 0.000606989
2 *510:X 0.000338198
3 *3:20 0.00135344
4 *3:10 0.00108465
5 bottom_grid_top_width_0_height_0_subtile_0__pin_I_8_ *131:14 6.69512e-05
6 bottom_grid_top_width_0_height_0_subtile_0__pin_I_8_ *149:16 0
7 *3:10 *419:D 8.15899e-06
8 *3:10 *420:CLK 2.96369e-05
9 *3:10 *128:38 5.1986e-05
10 *3:10 *175:18 1.00084e-05
11 *3:20 *420:D 0.000140313
12 *3:20 *478:A 4.95081e-05
13 *3:20 *479:A 4.95081e-05
14 *3:20 *529:A 0.00022698
15 *3:20 *26:19 4.93348e-05
16 *3:20 *41:8 0.000300002
17 *3:20 *96:10 5.70419e-05
18 *3:20 *103:12 0.000102052
19 bottom_grid_top_width_0_height_0_subtile_0__pin_I_4_ bottom_grid_top_width_0_height_0_subtile_0__pin_I_8_ 0
*RES
1 *510:X *3:10 42.4329 
2 *3:10 *3:20 47.9386 
3 *3:20 bottom_grid_top_width_0_height_0_subtile_0__pin_I_8_ 11.5171 
*END

*D_NET *4 0.0023379
*CONN
*P ccff_head I
*I *489:A I *D sky130_fd_sc_hd__clkbuf_1
*CAP
1 ccff_head 0.000977031
2 *489:A 0
3 *4:15 0.000977031
4 *4:15 ccff_tail 6.12504e-05
5 *4:15 chanx_left_out[7] 0.000271364
6 *4:15 chanx_left_out[8] 0
7 *4:15 *520:A 1.59071e-05
8 *4:15 *32:17 0
9 *4:15 *159:20 3.53115e-05
*RES
1 ccff_head *4:15 32.3326 
2 *4:15 *489:A 23 
*END

*D_NET *5 0.0031008
*CONN
*P ccff_tail O
*I *511:X O *D sky130_fd_sc_hd__clkbuf_4
*CAP
1 ccff_tail 0.00102214
2 *511:X 0.000348738
3 *5:8 0.00137088
4 ccff_tail chanx_left_out[7] 0
5 ccff_tail chanx_left_out[8] 0
6 ccff_tail *146:8 0
7 ccff_tail *159:20 0
8 ccff_tail *160:10 1.37349e-05
9 ccff_tail *161:8 0.000138718
10 *5:8 *423:A 9.78683e-05
11 *5:8 *43:12 4.27495e-05
12 *5:8 *151:43 4.71942e-06
13 *4:15 ccff_tail 6.12504e-05
*RES
1 *511:X *5:8 42.9093 
2 *5:8 ccff_tail 20.7595 
*END

*D_NET *6 0.00152792
*CONN
*P chanx_left_in[0] I
*I *500:A I *D sky130_fd_sc_hd__buf_1
*CAP
1 chanx_left_in[0] 0.000440271
2 *500:A 0
3 *6:13 0.000440271
4 *6:13 *523:A 8.63491e-06
5 *6:13 *7:17 0
6 *6:13 *42:11 0
7 *6:13 *84:20 0.000337336
8 *6:13 *166:26 0.000301409
*RES
1 chanx_left_in[0] *6:13 29.3257 
2 *6:13 *500:A 23 
*END

*D_NET *7 0.00582617
*CONN
*P chanx_left_in[1] I
*I *501:A I *D sky130_fd_sc_hd__buf_1
*CAP
1 chanx_left_in[1] 0.00163018
2 *501:A 0
3 *7:17 0.00163018
4 *7:17 *375:A 0.000351712
5 *7:17 *8:13 0
6 *7:17 *28:23 2.03401e-05
7 *7:17 *76:18 0
8 *7:17 *80:10 0.00040924
9 *7:17 *100:82 7.39611e-05
10 *7:17 *101:34 0.000217626
11 *7:17 *104:20 5.71506e-05
12 *7:17 *123:22 0.000287221
13 *7:17 *128:14 0.000209742
14 *7:17 *140:41 0.000357581
15 *7:17 *148:10 1.7122e-05
16 *7:17 *151:22 2.47015e-05
17 *7:17 *152:26 3.91498e-05
18 *7:17 *158:37 0.000109374
19 *7:17 *165:18 1.53048e-05
20 *7:17 *167:18 8.3944e-05
21 *7:17 *175:18 0.000291639
22 *6:13 *7:17 0
*RES
1 chanx_left_in[1] *7:17 43.7051 
2 *7:17 *501:A 23 
*END

*D_NET *8 0.000742409
*CONN
*P chanx_left_in[2] I
*I *502:A I *D sky130_fd_sc_hd__buf_1
*CAP
1 chanx_left_in[2] 0.000371205
2 *502:A 0
3 *8:13 0.000371205
4 *8:13 *9:13 0
5 *8:13 *142:16 0
6 *7:17 *8:13 0
*RES
1 chanx_left_in[2] *8:13 28.6417 
2 *8:13 *502:A 23 
*END

*D_NET *9 0.000754379
*CONN
*P chanx_left_in[3] I
*I *503:A I *D sky130_fd_sc_hd__buf_1
*CAP
1 chanx_left_in[3] 0.00037719
2 *503:A 0
3 *9:13 0.00037719
4 *9:13 *504:A 0
5 *9:13 *142:16 0
6 *8:13 *9:13 0
*RES
1 chanx_left_in[3] *9:13 28.6417 
2 *9:13 *503:A 23 
*END

*D_NET *10 0.000836277
*CONN
*P chanx_left_in[4] I
*I *504:A I *D sky130_fd_sc_hd__buf_1
*CAP
1 chanx_left_in[4] 0.000326553
2 *504:A 0.000326553
3 *504:A *505:A 0
4 *504:A *142:16 0.000183171
5 *504:A *188:10 0
6 *9:13 *504:A 0
*RES
1 chanx_left_in[4] *504:A 49.5439 
*END

*D_NET *11 0.000763243
*CONN
*P chanx_left_in[5] I
*I *505:A I *D sky130_fd_sc_hd__buf_1
*CAP
1 chanx_left_in[5] 0.000355052
2 *505:A 0.000355052
3 *505:A *12:13 0
4 *505:A *139:14 0
5 *505:A *152:26 5.31385e-05
6 *505:A *188:10 0
7 *504:A *505:A 0
*RES
1 chanx_left_in[5] *505:A 48.5012 
*END

*D_NET *12 0.000880251
*CONN
*P chanx_left_in[6] I
*I *506:A I *D sky130_fd_sc_hd__clkbuf_1
*CAP
1 chanx_left_in[6] 0.000440125
2 *506:A 0
3 *12:13 0.000440125
4 *12:13 chanx_left_out[0] 0
5 *12:13 *13:21 0
6 *12:13 *15:8 0
7 *12:13 *189:8 0
8 *505:A *12:13 0
*RES
1 chanx_left_in[6] *12:13 29.5946 
2 *12:13 *506:A 23 
*END

*D_NET *13 0.00200574
*CONN
*P chanx_left_in[7] I
*I *507:A I *D sky130_fd_sc_hd__clkbuf_1
*CAP
1 chanx_left_in[7] 0.000877224
2 *507:A 0
3 *13:21 0.000877224
4 *13:21 chanx_left_out[1] 0
5 *13:21 chanx_left_out[2] 0.000100962
6 *13:21 *14:23 5.27335e-05
7 *13:21 *137:8 8.24971e-05
8 *13:21 *153:10 0
9 *13:21 *154:22 1.51029e-05
10 *12:13 *13:21 0
*RES
1 chanx_left_in[7] *13:21 30.9598 
2 *13:21 *507:A 23 
*END

*D_NET *14 0.00311445
*CONN
*P chanx_left_in[8] I
*I *490:A I *D sky130_fd_sc_hd__buf_1
*CAP
1 chanx_left_in[8] 0.00126045
2 *490:A 0
3 *14:23 0.00126045
4 *14:23 chanx_left_out[2] 0.000540811
5 *14:23 *153:10 0
6 *13:21 *14:23 5.27335e-05
*RES
1 chanx_left_in[8] *14:23 49.8353 
2 *14:23 *490:A 23 
*END

*D_NET *15 0.00170742
*CONN
*P chanx_left_out[0] O
*I *512:X O *D sky130_fd_sc_hd__clkbuf_4
*CAP
1 chanx_left_out[0] 0.000480752
2 *512:X 0.000372957
3 *15:8 0.000853709
4 *12:13 chanx_left_out[0] 0
5 *12:13 *15:8 0
*RES
1 *512:X *15:8 43.3857 
2 *15:8 chanx_left_out[0] 10.8129 
*END

*D_NET *16 0.00124674
*CONN
*P chanx_left_out[1] O
*I *513:X O *D sky130_fd_sc_hd__clkbuf_4
*CAP
1 chanx_left_out[1] 0.000623372
2 *513:X 0.000623372
3 *13:21 chanx_left_out[1] 0
*RES
1 *513:X chanx_left_out[1] 49.3514 
*END

*D_NET *17 0.00156649
*CONN
*P chanx_left_out[2] O
*I *514:X O *D sky130_fd_sc_hd__clkbuf_4
*CAP
1 chanx_left_out[2] 0.000400846
2 *514:X 0.000400846
3 chanx_left_out[2] *137:8 6.59853e-05
4 chanx_left_out[2] *154:22 5.70419e-05
5 *13:21 chanx_left_out[2] 0.000100962
6 *14:23 chanx_left_out[2] 0.000540811
*RES
1 *514:X chanx_left_out[2] 49.3514 
*END

*D_NET *18 0.00118493
*CONN
*P chanx_left_out[3] O
*I *515:X O *D sky130_fd_sc_hd__clkbuf_4
*CAP
1 chanx_left_out[3] 0.00054098
2 *515:X 0.00054098
3 chanx_left_out[3] *137:8 0.000102972
*RES
1 *515:X chanx_left_out[3] 49.3514 
*END

*D_NET *19 0.00124973
*CONN
*P chanx_left_out[4] O
*I *516:X O *D sky130_fd_sc_hd__clkbuf_4
*CAP
1 chanx_left_out[4] 0.000513801
2 *516:X 0.000513801
3 chanx_left_out[4] *137:14 0.000182826
4 chanx_left_out[4] *156:10 3.3123e-05
5 chanx_left_out[4] *157:14 6.17437e-06
*RES
1 *516:X chanx_left_out[4] 49.455 
*END

*D_NET *20 0.0010201
*CONN
*P chanx_left_out[5] O
*I *517:X O *D sky130_fd_sc_hd__clkbuf_4
*CAP
1 chanx_left_out[5] 0.000478955
2 *517:X 0.000478955
3 chanx_left_out[5] *137:14 5.14746e-06
4 chanx_left_out[5] *157:14 5.70419e-05
*RES
1 *517:X chanx_left_out[5] 47.57 
*END

*D_NET *21 0.00121977
*CONN
*P chanx_left_out[6] O
*I *518:X O *D sky130_fd_sc_hd__clkbuf_4
*CAP
1 chanx_left_out[6] 0.000531982
2 *518:X 0.000531982
3 chanx_left_out[6] *137:14 5.50049e-05
4 chanx_left_out[6] *159:20 0.000100805
*RES
1 *518:X chanx_left_out[6] 49.455 
*END

*D_NET *22 0.00137358
*CONN
*P chanx_left_out[7] O
*I *519:X O *D sky130_fd_sc_hd__clkbuf_4
*CAP
1 chanx_left_out[7] 0.00048264
2 *519:X 0.00048264
3 chanx_left_out[7] *520:A 7.43209e-05
4 chanx_left_out[7] *159:20 6.26138e-05
5 ccff_tail chanx_left_out[7] 0
6 *4:15 chanx_left_out[7] 0.000271364
*RES
1 *519:X chanx_left_out[7] 49.3514 
*END

*D_NET *23 0.00116877
*CONN
*P chanx_left_out[8] O
*I *520:X O *D sky130_fd_sc_hd__clkbuf_4
*CAP
1 chanx_left_out[8] 0.00055638
2 *520:X 0.00055638
3 chanx_left_out[8] *520:A 1.24376e-05
4 chanx_left_out[8] *32:17 3.34247e-05
5 chanx_left_out[8] *159:20 1.01436e-05
6 ccff_tail chanx_left_out[8] 0
7 *4:15 chanx_left_out[8] 0
*RES
1 *520:X chanx_left_out[8] 48.5021 
*END

*D_NET *24 0.00315872
*CONN
*P chanx_right_in[0] I
*I *491:A I *D sky130_fd_sc_hd__buf_1
*CAP
1 chanx_right_in[0] 0.00111656
2 *491:A 0
3 *24:15 0.00111656
4 *24:15 *25:15 0
5 *24:15 *88:18 5.21127e-05
6 *24:15 *131:14 0.000318448
7 *24:15 *138:24 0.000336654
8 *24:15 *149:16 0
9 bottom_grid_top_width_0_height_0_subtile_0__pin_I_0_ *24:15 0
10 bottom_grid_top_width_0_height_0_subtile_0__pin_I_4_ *24:15 0.000218373
*RES
1 chanx_right_in[0] *24:15 41.9945 
2 *24:15 *491:A 23 
*END

*D_NET *25 0.00775176
*CONN
*P chanx_right_in[1] I
*I *492:A I *D sky130_fd_sc_hd__buf_1
*CAP
1 chanx_right_in[1] 0.00220117
2 *492:A 0
3 *25:15 0.00220117
4 *25:15 *393:A 0.000343045
5 *25:15 *26:19 0
6 *25:15 *88:18 3.21327e-05
7 *25:15 *93:10 0.000493092
8 *25:15 *96:10 0.00077275
9 *25:15 *96:70 0.000190385
10 *25:15 *116:10 8.4047e-05
11 *25:15 *136:14 0.000159387
12 *25:15 *137:14 0
13 bottom_grid_top_width_0_height_0_subtile_0__pin_I_0_ *25:15 0.00127457
14 *24:15 *25:15 0
*RES
1 chanx_right_in[1] *25:15 48.1972 
2 *25:15 *492:A 38 
*END

*D_NET *26 0.00581124
*CONN
*P chanx_right_in[2] I
*I *493:A I *D sky130_fd_sc_hd__buf_1
*CAP
1 chanx_right_in[2] 0.00251456
2 *493:A 0
3 *26:19 0.00251456
4 *26:19 *420:CLK 2.99088e-05
5 *26:19 *420:D 7.78111e-05
6 *26:19 *478:A 3.68387e-05
7 *26:19 *27:17 0
8 *26:19 *128:38 0.000122178
9 *26:19 *133:20 0.000354995
10 *26:19 *138:28 0
11 *26:19 *140:14 0.000111051
12 *3:20 *26:19 4.93348e-05
13 *25:15 *26:19 0
*RES
1 chanx_right_in[2] *26:19 37.5804 
2 *26:19 *493:A 23 
*END

*D_NET *27 0.00741709
*CONN
*P chanx_right_in[3] I
*I *494:A I *D sky130_fd_sc_hd__buf_1
*CAP
1 chanx_right_in[3] 0.00228982
2 *494:A 0
3 *27:17 0.00228982
4 *27:17 *409:A 9.84851e-05
5 *27:17 *457:Z 4.75206e-05
6 *27:17 *28:23 0.000238786
7 *27:17 *46:12 0.000572723
8 *27:17 *75:30 0
9 *27:17 *104:20 0.00040285
10 *27:17 *133:20 0.000182208
11 *27:17 *150:8 0.000188855
12 *27:17 *167:22 4.51797e-05
13 *27:17 *175:18 0.00106085
14 *26:19 *27:17 0
*RES
1 chanx_right_in[3] *27:17 36.8301 
2 *27:17 *494:A 23 
*END

*D_NET *28 0.012063
*CONN
*P chanx_right_in[4] I
*I *495:A I *D sky130_fd_sc_hd__buf_1
*I *193:DIODE I *D sky130_fd_sc_hd__diode_2
*CAP
1 chanx_right_in[4] 0.00366513
2 *495:A 2.21822e-05
3 *193:DIODE 7.40056e-05
4 *28:23 0.00376132
5 *193:DIODE *142:8 0.000139069
6 *495:A *141:16 2.93104e-06
7 *28:23 *478:A 1.37174e-05
8 *28:23 *29:21 0
9 *28:23 *81:28 0.000242903
10 *28:23 *104:20 0.00263448
11 *28:23 *118:16 0
12 *28:23 *123:8 0.000164508
13 *28:23 *140:41 3.06787e-05
14 *28:23 *141:16 5.68958e-05
15 *28:23 *142:8 0.000102389
16 *28:23 *151:22 0.000872516
17 *28:23 *175:18 2.11157e-05
18 *7:17 *28:23 2.03401e-05
19 *27:17 *28:23 0.000238786
*RES
1 chanx_right_in[4] *28:23 39.7439 
2 *28:23 *193:DIODE 24.5743 
3 *28:23 *495:A 23.4971 
*END

*D_NET *29 0.00573756
*CONN
*P chanx_right_in[5] I
*I *496:A I *D sky130_fd_sc_hd__buf_1
*CAP
1 chanx_right_in[5] 0.00253069
2 *496:A 0
3 *29:21 0.00253069
4 *29:21 *395:A 1.37232e-05
5 *29:21 *446:Z 0.000220463
6 *29:21 *452:A 5.79559e-05
7 *29:21 *30:13 0
8 *29:21 *58:24 5.91472e-05
9 *29:21 *62:10 0
10 *29:21 *86:32 0
11 *29:21 *90:12 2.61419e-05
12 *29:21 *99:16 3.31683e-05
13 *29:21 *115:8 0
14 *29:21 *116:10 5.56279e-05
15 *29:21 *137:14 4.21594e-06
16 *29:21 *137:26 6.63801e-05
17 *29:21 *151:22 0
18 *29:21 *176:8 0.000139357
19 *28:23 *29:21 0
*RES
1 chanx_right_in[5] *29:21 44.1849 
2 *29:21 *496:A 23 
*END

*D_NET *30 0.000852227
*CONN
*P chanx_right_in[6] I
*I *497:A I *D sky130_fd_sc_hd__clkbuf_1
*CAP
1 chanx_right_in[6] 0.000426113
2 *497:A 0
3 *30:13 0.000426113
4 *30:13 *31:15 0
5 *30:13 *137:30 0
6 *30:13 *151:31 0
7 *29:21 *30:13 0
*RES
1 chanx_right_in[6] *30:13 28.2512 
2 *30:13 *497:A 23 
*END

*D_NET *31 0.00171454
*CONN
*P chanx_right_in[7] I
*I *498:A I *D sky130_fd_sc_hd__clkbuf_1
*CAP
1 chanx_right_in[7] 0.000683792
2 *498:A 0
3 *31:15 0.000683792
4 *31:15 *394:A 0.000100061
5 *31:15 *424:A 1.8788e-05
6 *31:15 *32:17 0
7 *31:15 *111:10 5.40241e-05
8 *31:15 *159:20 0.000174088
9 *30:13 *31:15 0
*RES
1 chanx_right_in[7] *31:15 28.302 
2 *31:15 *498:A 23 
*END

*D_NET *32 0.00168329
*CONN
*P chanx_right_in[8] I
*I *499:A I *D sky130_fd_sc_hd__buf_1
*CAP
1 chanx_right_in[8] 0.000773165
2 *499:A 0
3 *32:17 0.000773165
4 *32:17 top_grid_bottom_width_0_height_0_subtile_0__pin_outpad_0_ 0
5 *32:17 *520:A 0.000103532
6 *32:17 *159:20 0
7 chanx_left_out[8] *32:17 3.34247e-05
8 *4:15 *32:17 0
9 *31:15 *32:17 0
*RES
1 chanx_right_in[8] *32:17 31.4947 
2 *32:17 *499:A 23 
*END

*D_NET *33 0.00231393
*CONN
*P chanx_right_out[0] O
*I *521:X O *D sky130_fd_sc_hd__clkbuf_4
*CAP
1 chanx_right_out[0] 0.000727585
2 *521:X 0.00042412
3 *33:8 0.00115171
4 chanx_right_out[0] chanx_right_out[1] 0
5 *33:8 *521:A 1.05235e-05
*RES
1 *521:X *33:8 44.3386 
2 *33:8 chanx_right_out[0] 16.4471 
*END

*D_NET *34 0.0025199
*CONN
*P chanx_right_out[1] O
*I *522:X O *D sky130_fd_sc_hd__clkbuf_4
*CAP
1 chanx_right_out[1] 0.000777388
2 *522:X 0.000154296
3 *34:8 0.000931684
4 chanx_right_out[1] chanx_right_out[2] 0
5 chanx_right_out[1] *523:A 0
6 chanx_right_out[1] *84:20 0.000135163
7 chanx_right_out[1] *142:16 0.000510849
8 *34:8 *522:A 1.05235e-05
9 chanx_right_out[0] chanx_right_out[1] 0
*RES
1 *522:X *34:8 39.5743 
2 *34:8 chanx_right_out[1] 19.2643 
*END

*D_NET *35 0.00089377
*CONN
*P chanx_right_out[2] O
*I *523:X O *D sky130_fd_sc_hd__clkbuf_4
*CAP
1 chanx_right_out[2] 0.000446885
2 *523:X 0.000446885
3 chanx_right_out[2] chanx_right_out[3] 0
4 chanx_right_out[2] *88:8 0
5 chanx_right_out[1] chanx_right_out[2] 0
*RES
1 *523:X chanx_right_out[2] 47.5907 
*END

*D_NET *36 0.000921571
*CONN
*P chanx_right_out[3] O
*I *524:X O *D sky130_fd_sc_hd__clkbuf_4
*CAP
1 chanx_right_out[3] 0.000460786
2 *524:X 0.000460786
3 chanx_right_out[3] chanx_right_out[4] 0
4 chanx_right_out[3] *88:8 0
5 chanx_right_out[2] chanx_right_out[3] 0
*RES
1 *524:X chanx_right_out[3] 47.0936 
*END

*D_NET *37 0.00120615
*CONN
*P chanx_right_out[4] O
*I *525:X O *D sky130_fd_sc_hd__clkbuf_4
*CAP
1 chanx_right_out[4] 0.000565727
2 *525:X 0.000565727
3 chanx_right_out[4] chanx_right_out[5] 0
4 chanx_right_out[4] *166:26 5.70419e-05
5 chanx_right_out[4] *174:10 1.76557e-05
6 chanx_right_out[3] chanx_right_out[4] 0
*RES
1 *525:X chanx_right_out[4] 48.9579 
*END

*D_NET *38 0.000862448
*CONN
*P chanx_right_out[5] O
*I *526:X O *D sky130_fd_sc_hd__clkbuf_4
*CAP
1 chanx_right_out[5] 0.000431224
2 *526:X 0.000431224
3 chanx_right_out[5] chanx_right_out[6] 0
4 chanx_right_out[4] chanx_right_out[5] 0
*RES
1 *526:X chanx_right_out[5] 46.6171 
*END

*D_NET *39 0.00378831
*CONN
*P chanx_right_out[6] O
*I *527:X O *D sky130_fd_sc_hd__clkbuf_4
*CAP
1 chanx_right_out[6] 0.000795209
2 *527:X 0.000341361
3 *39:10 0.00113657
4 chanx_right_out[6] chanx_right_out[7] 0
5 chanx_right_out[6] *454:Z 0.000436429
6 chanx_right_out[6] *42:11 0
7 chanx_right_out[6] *57:10 0.000495758
8 chanx_right_out[6] *74:28 5.01918e-05
9 chanx_right_out[6] *126:25 0
10 chanx_right_out[6] *127:25 0.000134258
11 *39:10 *354:A 0.000143398
12 *39:10 *480:A 5.50106e-05
13 *39:10 *57:10 5.3304e-05
14 *39:10 *177:10 0.000146822
15 chanx_right_out[5] chanx_right_out[6] 0
*RES
1 *527:X *39:10 43.8829 
2 *39:10 chanx_right_out[6] 20.6936 
*END

*D_NET *40 0.00089026
*CONN
*P chanx_right_out[7] O
*I *528:X O *D sky130_fd_sc_hd__clkbuf_4
*CAP
1 chanx_right_out[7] 0.000354141
2 *528:X 0.000354141
3 chanx_right_out[7] chanx_right_out[8] 0
4 chanx_right_out[7] *42:11 0.000181978
5 chanx_right_out[6] chanx_right_out[7] 0
*RES
1 *528:X chanx_right_out[7] 46.7621 
*END

*D_NET *41 0.00318859
*CONN
*P chanx_right_out[8] O
*I *529:X O *D sky130_fd_sc_hd__clkbuf_4
*CAP
1 chanx_right_out[8] 0.000559038
2 *529:X 0.000731849
3 *41:8 0.00129089
4 chanx_right_out[8] *89:12 0.000129757
5 chanx_right_out[8] *128:38 3.70829e-05
6 *41:8 *103:12 0.000139977
7 bottom_grid_top_width_0_height_0_subtile_0__pin_I_0_ chanx_right_out[8] 0
8 chanx_right_out[7] chanx_right_out[8] 0
9 *3:20 *41:8 0.000300002
*RES
1 *529:X *41:8 48.6264 
2 *41:8 chanx_right_out[8] 11.5793 
*END

*D_NET *42 0.00712145
*CONN
*P prog_clk I
*I *477:A I *D sky130_fd_sc_hd__clkbuf_16
*CAP
1 prog_clk 0.00233116
2 *477:A 0.000109763
3 *42:11 0.00244093
4 *477:A *112:8 9.62666e-05
5 *42:11 *399:A 0.000123267
6 *42:11 *443:Z 6.11241e-05
7 *42:11 *451:A 2.39378e-05
8 *42:11 *74:28 2.70469e-05
9 *42:11 *138:28 0.000691187
10 *42:11 *170:12 0.00103479
11 chanx_right_out[6] *42:11 0
12 chanx_right_out[7] *42:11 0.000181978
13 *6:13 *42:11 0
*RES
1 prog_clk *42:11 48.4271 
2 *42:11 *477:A 25.0507 
*END

*D_NET *43 0.00207936
*CONN
*P top_grid_bottom_width_0_height_0_subtile_0__pin_outpad_0_ O
*I *530:X O *D sky130_fd_sc_hd__clkbuf_4
*CAP
1 top_grid_bottom_width_0_height_0_subtile_0__pin_outpad_0_ 0.000540538
2 *530:X 0.000417424
3 *43:12 0.000957963
4 *43:12 *423:A 2.3853e-05
5 *43:12 *151:43 9.68316e-05
6 *5:8 *43:12 4.27495e-05
7 *32:17 top_grid_bottom_width_0_height_0_subtile_0__pin_outpad_0_ 0
*RES
1 *530:X *43:12 45.9336 
2 *43:12 top_grid_bottom_width_0_height_0_subtile_0__pin_outpad_0_ 11.8693 
*END

*D_NET *46 0.0063361
*CONN
*I *369:A I *D sky130_fd_sc_hd__clkbuf_1
*I *368:X O *D sky130_fd_sc_hd__clkbuf_1
*CAP
1 *369:A 0
2 *368:X 0.000738619
3 *46:28 0.00196568
4 *46:12 0.0027043
5 *46:12 *457:Z 3.04283e-05
6 *46:12 *95:10 0
7 *46:12 *150:8 1.40958e-05
8 *46:12 *165:18 5.39991e-05
9 *46:28 *375:A 1.27424e-05
10 *46:28 *102:48 2.51768e-05
11 *46:28 *104:20 0.000167141
12 *46:28 *175:18 5.11963e-05
13 *27:17 *46:12 0.000572723
*RES
1 *368:X *46:12 49.6518 
2 *46:12 *46:28 35.584 
3 *46:28 *369:A 38 
*END

*D_NET *47 0.000605408
*CONN
*I *373:A I *D sky130_fd_sc_hd__clkbuf_1
*I *372:X O *D sky130_fd_sc_hd__clkbuf_1
*CAP
1 *373:A 0.000137135
2 *372:X 0.000137135
3 *373:A *372:A 9.41704e-05
4 *373:A *75:12 7.38184e-05
5 *373:A *77:10 9.88259e-05
6 *373:A *100:63 3.59255e-05
7 *373:A *101:51 4.00259e-06
8 *373:A *158:14 2.43944e-05
*RES
1 *372:X *373:A 49.5214 
*END

*D_NET *48 0.00301768
*CONN
*I *375:A I *D sky130_fd_sc_hd__clkbuf_1
*I *374:X O *D sky130_fd_sc_hd__clkbuf_1
*CAP
1 *375:A 0.000381095
2 *374:X 0.000441787
3 *48:8 0.000822882
4 *375:A *60:10 0.000344112
5 *375:A *101:34 9.28078e-06
6 *375:A *154:12 4.43259e-05
7 *375:A *154:22 0.000121649
8 *48:8 *142:20 9.00923e-05
9 *48:8 *187:10 0.000397997
10 *7:17 *375:A 0.000351712
11 *46:28 *375:A 1.27424e-05
*RES
1 *374:X *48:8 44.3386 
2 *48:8 *375:A 45.8921 
*END

*D_NET *49 0.00196048
*CONN
*I *380:A I *D sky130_fd_sc_hd__clkbuf_1
*I *379:X O *D sky130_fd_sc_hd__clkbuf_1
*CAP
1 *380:A 0
2 *379:X 0.000447044
3 *49:10 0.000447044
4 *49:10 *377:A 2.31591e-05
5 *49:10 *382:A 9.43465e-05
6 *49:10 *67:8 4.334e-05
7 *49:10 *96:78 1.32314e-05
8 *49:10 *97:46 9.41704e-05
9 *49:10 *98:14 0.000237138
10 *49:10 *170:12 0.000558195
11 *49:10 *184:12 2.80924e-06
*RES
1 *379:X *49:10 48.5436 