*SPEF "ieee 1481-1999"
*DESIGN "cbx_1__1_"
*DATE "11:11:11 Fri 11 11, 1111"
*VENDOR "OpenRCX"
*PROGRAM "Parallel Extraction"
*VERSION "1.0"
*DESIGN_FLOW "NAME_SCOPE LOCAL" "PIN_CAP NONE"
*DIVIDER /
*DELIMITER :
*BUS_DELIMITER []
*T_UNIT 1 NS
*C_UNIT 1 PF
*R_UNIT 1 OHM
*L_UNIT 1 HENRY

*NAME_MAP
*1 bottom_grid_top_width_0_height_0_subtile_0__pin_I_0_
*2 bottom_grid_top_width_0_height_0_subtile_0__pin_I_4_
*3 bottom_grid_top_width_0_height_0_subtile_0__pin_I_8_
*4 ccff_head
*5 ccff_tail
*6 chanx_left_in[0]
*7 chanx_left_in[1]
*8 chanx_left_in[2]
*9 chanx_left_in[3]
*10 chanx_left_in[4]
*11 chanx_left_in[5]
*12 chanx_left_in[6]
*13 chanx_left_in[7]
*14 chanx_left_in[8]
*15 chanx_left_out[0]
*16 chanx_left_out[1]
*17 chanx_left_out[2]
*18 chanx_left_out[3]
*19 chanx_left_out[4]
*20 chanx_left_out[5]
*21 chanx_left_out[6]
*22 chanx_left_out[7]
*23 chanx_left_out[8]
*24 chanx_right_in[0]
*25 chanx_right_in[1]
*26 chanx_right_in[2]
*27 chanx_right_in[3]
*28 chanx_right_in[4]
*29 chanx_right_in[5]
*30 chanx_right_in[6]
*31 chanx_right_in[7]
*32 chanx_right_in[8]
*33 chanx_right_out[0]
*34 chanx_right_out[1]
*35 chanx_right_out[2]
*36 chanx_right_out[3]
*37 chanx_right_out[4]
*38 chanx_right_out[5]
*39 chanx_right_out[6]
*40 chanx_right_out[7]
*41 chanx_right_out[8]
*42 prog_clk
*43 top_grid_bottom_width_0_height_0_subtile_0__pin_I_2_
*44 top_grid_bottom_width_0_height_0_subtile_0__pin_I_6_
*47 _000_
*48 _001_
*49 _002_
*50 _003_
*51 _004_
*52 _005_
*53 _006_
*54 _007_
*55 _008_
*56 _009_
*57 _010_
*58 _011_
*59 _012_
*60 _013_
*61 _014_
*62 _015_
*63 _016_
*64 _017_
*65 _018_
*66 _019_
*67 _020_
*68 _021_
*69 _022_
*70 _023_
*71 _024_
*72 _025_
*73 _026_
*74 _027_
*75 _028_
*76 _029_
*77 _030_
*78 _031_
*79 _032_
*80 _033_
*81 _034_
*82 _035_
*83 _036_
*84 _037_
*85 _038_
*86 _039_
*87 _040_
*88 _041_
*89 _042_
*90 _043_
*91 _044_
*92 _045_
*93 _046_
*94 _047_
*95 _048_
*96 _049_
*97 _050_
*98 _051_
*99 _052_
*100 _053_
*101 clknet_0_prog_clk
*102 clknet_1_0__leaf_prog_clk
*103 clknet_1_1__leaf_prog_clk
*104 mem_bottom_ipin_0\.DFF_0_\.Q
*105 mem_bottom_ipin_0\.DFF_1_\.Q
*106 mem_bottom_ipin_0\.DFF_2_\.Q
*107 mem_bottom_ipin_1\.DFF_0_\.Q
*108 mem_bottom_ipin_1\.DFF_1_\.Q
*109 mem_top_ipin_0\.DFF_0_\.Q
*110 mem_top_ipin_0\.DFF_1_\.Q
*111 mem_top_ipin_0\.DFF_2_\.Q
*112 mem_top_ipin_1\.DFF_0_\.Q
*113 mem_top_ipin_1\.DFF_1_\.Q
*114 mem_top_ipin_2\.DFF_0_\.Q
*115 mux_bottom_ipin_0\.INVTX1_0_\.out
*116 mux_bottom_ipin_0\.INVTX1_1_\.out
*117 mux_bottom_ipin_0\.INVTX1_2_\.out
*118 mux_bottom_ipin_0\.INVTX1_3_\.out
*119 mux_bottom_ipin_0\.INVTX1_4_\.out
*120 mux_bottom_ipin_0\.INVTX1_5_\.out
*121 mux_bottom_ipin_0\.mux_l1_in_0_\.TGATE_0_\.out
*122 mux_bottom_ipin_0\.mux_l1_in_1_\.TGATE_0_\.out
*123 mux_bottom_ipin_0\.mux_l1_in_2_\.TGATE_0_\.out
*124 mux_bottom_ipin_0\.mux_l2_in_0_\.TGATE_0_\.out
*125 mux_bottom_ipin_0\.mux_l2_in_1_\.TGATE_0_\.out
*126 mux_bottom_ipin_0\.mux_l3_in_0_\.TGATE_0_\.out
*127 mux_bottom_ipin_1\.INVTX1_0_\.out
*128 mux_bottom_ipin_1\.INVTX1_1_\.out
*129 mux_bottom_ipin_1\.mux_l1_in_0_\.TGATE_0_\.out
*130 mux_bottom_ipin_1\.mux_l2_in_0_\.TGATE_0_\.out
*131 mux_top_ipin_0\.INVTX1_2_\.out
*132 mux_top_ipin_0\.INVTX1_3_\.out
*133 mux_top_ipin_0\.INVTX1_4_\.out
*134 mux_top_ipin_0\.INVTX1_5_\.out
*135 mux_top_ipin_0\.mux_l1_in_0_\.TGATE_0_\.out
*136 mux_top_ipin_0\.mux_l1_in_1_\.TGATE_0_\.out
*137 mux_top_ipin_0\.mux_l1_in_2_\.TGATE_0_\.out
*138 mux_top_ipin_0\.mux_l2_in_0_\.TGATE_0_\.out
*139 mux_top_ipin_0\.mux_l2_in_1_\.TGATE_0_\.out
*140 mux_top_ipin_0\.mux_l3_in_0_\.TGATE_0_\.out
*141 mux_top_ipin_1\.INVTX1_0_\.out
*142 mux_top_ipin_1\.INVTX1_1_\.out
*143 mux_top_ipin_1\.mux_l1_in_0_\.TGATE_0_\.out
*144 mux_top_ipin_1\.mux_l2_in_0_\.TGATE_0_\.out
*145 mux_top_ipin_2\.mux_l1_in_0_\.TGATE_0_\.out
*146 mux_top_ipin_2\.mux_l2_in_0_\.TGATE_0_\.out
*147 net1
*148 net10
*149 net11
*150 net12
*151 net13
*152 net14
*153 net15
*154 net16
*155 net17
*156 net18
*157 net19
*158 net2
*159 net20
*160 net21
*161 net22
*162 net23
*163 net24
*164 net25
*165 net26
*166 net27
*167 net28
*168 net29
*169 net3
*170 net30
*171 net31
*172 net32
*173 net33
*174 net34
*175 net35
*176 net36
*177 net37
*178 net38
*179 net39
*180 net4
*181 net40
*182 net41
*183 net42
*184 net43
*185 net44
*186 net45
*187 net46
*188 net47
*189 net48
*190 net49
*191 net5
*192 net50
*193 net51
*194 net52
*195 net53
*196 net54
*197 net55
*198 net56
*199 net57
*200 net58
*201 net59
*202 net6
*203 net7
*204 net8
*205 net9
*206 ANTENNA_1
*207 FILLER_0_0_102
*208 FILLER_0_0_3
*209 FILLER_0_0_55
*210 FILLER_0_0_72
*211 FILLER_0_0_82
*212 FILLER_0_0_91
*213 FILLER_0_10_101
*214 FILLER_0_10_16
*215 FILLER_0_10_29
*216 FILLER_0_10_3
*217 FILLER_0_10_41
*218 FILLER_0_10_53
*219 FILLER_0_10_70
*220 FILLER_0_10_8
*221 FILLER_0_10_83
*222 FILLER_0_11_101
*223 FILLER_0_11_18
*224 FILLER_0_11_30
*225 FILLER_0_11_42
*226 FILLER_0_11_54
*227 FILLER_0_11_57
*228 FILLER_0_11_6
*229 FILLER_0_11_66
*230 FILLER_0_11_73
*231 FILLER_0_11_94
*232 FILLER_0_12_13
*233 FILLER_0_12_25
*234 FILLER_0_12_29
*235 FILLER_0_12_33
*236 FILLER_0_12_37
*237 FILLER_0_12_48
*238 FILLER_0_12_57
*239 FILLER_0_12_6
*240 FILLER_0_12_83
*241 FILLER_0_13_18
*242 FILLER_0_13_26
*243 FILLER_0_13_29
*244 FILLER_0_13_37
*245 FILLER_0_13_41
*246 FILLER_0_13_48
*247 FILLER_0_13_52
*248 FILLER_0_13_63
*249 FILLER_0_13_73
*250 FILLER_0_13_85
*251 FILLER_0_13_95
*252 FILLER_0_1_15
*253 FILLER_0_1_36
*254 FILLER_0_1_54
*255 FILLER_0_1_95
*256 FILLER_0_2_3
*257 FILLER_0_2_52
*258 FILLER_0_2_63
*259 FILLER_0_2_83
*260 FILLER_0_2_9
*261 FILLER_0_3_3
*262 FILLER_0_3_42
*263 FILLER_0_3_52
*264 FILLER_0_3_65
*265 FILLER_0_3_74
*266 FILLER_0_3_95
*267 FILLER_0_4_29
*268 FILLER_0_4_50
*269 FILLER_0_4_99
*270 FILLER_0_5_27
*271 FILLER_0_5_46
*272 FILLER_0_5_68
*273 FILLER_0_5_9
*274 FILLER_0_6_101
*275 FILLER_0_6_3
*276 FILLER_0_6_74
*277 FILLER_0_6_83
*278 FILLER_0_7_60
*279 FILLER_0_7_68
*280 FILLER_0_7_89
*281 FILLER_0_7_99
*282 FILLER_0_8_102
*283 FILLER_0_8_23
*284 FILLER_0_8_3
*285 FILLER_0_8_40
*286 FILLER_0_8_63
*287 FILLER_0_8_77
*288 FILLER_0_9_102
*289 FILLER_0_9_27
*290 FILLER_0_9_31
*291 FILLER_0_9_35
*292 FILLER_0_9_41
*293 FILLER_0_9_45
*294 FILLER_0_9_49
*295 FILLER_0_9_6
*296 FILLER_0_9_68
*297 PHY_0
*298 PHY_1
*299 PHY_10
*300 PHY_11
*301 PHY_12
*302 PHY_13
*303 PHY_14
*304 PHY_15
*305 PHY_16
*306 PHY_17
*307 PHY_18
*308 PHY_19
*309 PHY_2
*310 PHY_20
*311 PHY_21
*312 PHY_22
*313 PHY_23
*314 PHY_24
*315 PHY_25
*316 PHY_26
*317 PHY_27
*318 PHY_3
*319 PHY_4
*320 PHY_5
*321 PHY_6
*322 PHY_7
*323 PHY_8
*324 PHY_9
*325 TAP_28
*326 TAP_29
*327 TAP_30
*328 TAP_31
*329 TAP_32
*330 TAP_33
*331 TAP_34
*332 TAP_35
*333 TAP_36
*334 TAP_37
*335 TAP_38
*336 TAP_39
*337 TAP_40
*338 TAP_41
*339 TAP_42
*340 TAP_43
*341 TAP_44
*342 TAP_45
*343 TAP_46
*344 TAP_47
*345 TAP_48
*346 TAP_49
*347 TAP_50
*348 TAP_51
*349 _059_
*350 _060_
*351 _061_
*352 _062_
*353 _063_
*354 _064_
*355 _065_
*356 _066_
*357 _067_
*358 _068_
*359 _069_
*360 _070_
*361 _071_
*362 _072_
*363 _073_
*364 _074_
*365 _075_
*366 _076_
*367 _077_
*368 _078_
*369 _079_
*370 _080_
*371 _081_
*372 _082_
*373 _083_
*374 _084_
*375 _085_
*376 _086_
*377 _087_
*378 _088_
*379 _089_
*380 _090_
*381 _091_
*382 _092_
*383 _093_
*384 _094_
*385 _095_
*386 _096_
*387 _097_
*388 _098_
*389 _099_
*390 _100_
*391 _101_
*392 _102_
*393 _103_
*394 _104_
*395 _105_
*396 _106_
*397 _107_
*398 _108_
*399 _109_
*400 _110_
*401 _111_
*402 _112_
*403 _113_
*404 _114_
*405 _115_
*406 _116_
*407 _117_
*408 _118_
*409 _119_
*410 _120_
*411 _121_
*412 _122_
*413 _123_
*414 _124_
*415 _125_
*416 _126_
*417 _127_
*418 _128_
*419 _129_
*420 _130_
*421 _131_
*422 _132_
*423 _133_
*424 _134_
*425 _135_
*426 _136_
*427 _137_
*428 _138_
*429 _139_
*430 _140_
*431 _141_
*432 _142_
*433 _143_
*434 _149_
*435 _150_
*436 _151_
*437 _152_
*438 _153_
*439 _154_
*440 _155_
*441 _156_
*442 _157_
*443 _158_
*444 _159_
*445 _160_
*446 _161_
*447 _162_
*448 _163_
*449 _164_
*450 _165_
*451 _166_
*452 _167_
*453 _167__44
*454 _168_
*455 _169_
*456 _170_
*457 _171_
*458 _172_
*459 _173_
*460 _174_
*461 _175_
*462 _176_
*463 _177_
*464 _178_
*465 _179_
*466 _180_
*467 _180__45
*468 _181_
*469 _182_
*470 _183_
*471 _184_
*472 _185_
*473 _186_
*474 _187_
*475 _188_
*476 _189_
*477 _190_
*478 _191_
*479 _191__46
*480 _192_
*481 _193_
*482 _194_
*483 _195_
*484 _195__47
*485 _196_
*486 _197_
*487 _198_
*488 _199_
*489 _199__48
*490 _200_
*491 _201_
*492 _202_
*493 clkbuf_0_prog_clk
*494 clkbuf_1_0__f_prog_clk
*495 clkbuf_1_1__f_prog_clk
*496 hold1
*497 hold10
*498 hold11
*499 hold2
*500 hold3
*501 hold4
*502 hold5
*503 hold6
*504 hold7
*505 hold8
*506 hold9
*507 input1
*508 input10
*509 input11
*510 input12
*511 input13
*512 input14
*513 input15
*514 input16
*515 input17
*516 input18
*517 input19
*518 input2
*519 input3
*520 input4
*521 input5
*522 input6
*523 input7
*524 input8
*525 input9
*526 output20
*527 output21
*528 output22
*529 output23
*530 output24
*531 output25
*532 output26
*533 output27
*534 output28
*535 output29
*536 output30
*537 output31
*538 output32
*539 output33
*540 output34
*541 output35
*542 output36
*543 output37
*544 output38
*545 output39
*546 output40
*547 output41
*548 output42
*549 output43

*PORTS
bottom_grid_top_width_0_height_0_subtile_0__pin_I_0_ O
bottom_grid_top_width_0_height_0_subtile_0__pin_I_4_ O
bottom_grid_top_width_0_height_0_subtile_0__pin_I_8_ O
ccff_head I
ccff_tail O
chanx_left_in[0] I
chanx_left_in[1] I
chanx_left_in[2] I
chanx_left_in[3] I
chanx_left_in[4] I
chanx_left_in[5] I
chanx_left_in[6] I
chanx_left_in[7] I
chanx_left_in[8] I
chanx_left_out[0] O
chanx_left_out[1] O
chanx_left_out[2] O
chanx_left_out[3] O
chanx_left_out[4] O
chanx_left_out[5] O
chanx_left_out[6] O
chanx_left_out[7] O
chanx_left_out[8] O
chanx_right_in[0] I
chanx_right_in[1] I
chanx_right_in[2] I
chanx_right_in[3] I
chanx_right_in[4] I
chanx_right_in[5] I
chanx_right_in[6] I
chanx_right_in[7] I
chanx_right_in[8] I
chanx_right_out[0] O
chanx_right_out[1] O
chanx_right_out[2] O
chanx_right_out[3] O
chanx_right_out[4] O
chanx_right_out[5] O
chanx_right_out[6] O
chanx_right_out[7] O
chanx_right_out[8] O
prog_clk I
top_grid_bottom_width_0_height_0_subtile_0__pin_I_2_ O
top_grid_bottom_width_0_height_0_subtile_0__pin_I_6_ O

*D_NET *1 0.00127881
*CONN
*P bottom_grid_top_width_0_height_0_subtile_0__pin_I_0_ O
*I *526:X O *D sky130_fd_sc_hd__clkbuf_4
*CAP
1 bottom_grid_top_width_0_height_0_subtile_0__pin_I_0_ 0.000544114
2 *526:X 0.000544114
3 bottom_grid_top_width_0_height_0_subtile_0__pin_I_0_ bottom_grid_top_width_0_height_0_subtile_0__pin_I_4_ 0
4 bottom_grid_top_width_0_height_0_subtile_0__pin_I_0_ chanx_right_out[8] 0
5 bottom_grid_top_width_0_height_0_subtile_0__pin_I_0_ *526:A 0.000185434
6 bottom_grid_top_width_0_height_0_subtile_0__pin_I_0_ *160:24 5.14746e-06
*RES
1 *526:X bottom_grid_top_width_0_height_0_subtile_0__pin_I_0_ 48.5229 
*END

*D_NET *2 0.0011384
*CONN
*P bottom_grid_top_width_0_height_0_subtile_0__pin_I_4_ O
*I *527:X O *D sky130_fd_sc_hd__clkbuf_4
*CAP
1 bottom_grid_top_width_0_height_0_subtile_0__pin_I_4_ 0.000540261
2 *527:X 0.000540261
3 bottom_grid_top_width_0_height_0_subtile_0__pin_I_4_ bottom_grid_top_width_0_height_0_subtile_0__pin_I_8_ 0
4 bottom_grid_top_width_0_height_0_subtile_0__pin_I_4_ *25:13 0
5 bottom_grid_top_width_0_height_0_subtile_0__pin_I_4_ *150:10 2.24366e-06
6 bottom_grid_top_width_0_height_0_subtile_0__pin_I_4_ *160:24 5.56356e-05
7 bottom_grid_top_width_0_height_0_subtile_0__pin_I_0_ bottom_grid_top_width_0_height_0_subtile_0__pin_I_4_ 0
*RES
1 *527:X bottom_grid_top_width_0_height_0_subtile_0__pin_I_4_ 48.9164 
*END

*D_NET *3 0.00136935
*CONN
*P bottom_grid_top_width_0_height_0_subtile_0__pin_I_8_ O
*I *528:X O *D sky130_fd_sc_hd__clkbuf_4
*CAP
1 bottom_grid_top_width_0_height_0_subtile_0__pin_I_8_ 0.000484602
2 *528:X 0.000484602
3 bottom_grid_top_width_0_height_0_subtile_0__pin_I_8_ *25:13 0.000400142
4 bottom_grid_top_width_0_height_0_subtile_0__pin_I_4_ bottom_grid_top_width_0_height_0_subtile_0__pin_I_8_ 0
*RES
1 *528:X bottom_grid_top_width_0_height_0_subtile_0__pin_I_8_ 49.5793 
*END

*D_NET *4 0.00274659
*CONN
*P ccff_head I
*I *507:A I *D sky130_fd_sc_hd__clkbuf_1
*CAP
1 ccff_head 0.00118006
2 *507:A 0
3 *4:15 0.00118006
4 *4:15 ccff_tail 0
5 *4:15 top_grid_bottom_width_0_height_0_subtile_0__pin_I_2_ 0
6 *4:15 top_grid_bottom_width_0_height_0_subtile_0__pin_I_6_ 0
7 *4:15 *30:15 2.11157e-05
8 *4:15 *31:13 0
9 *4:15 *32:17 0
10 *4:15 *44:12 0
11 *4:15 *147:10 0.000293984
12 *4:15 *162:46 7.13673e-05
13 *4:15 *183:10 0
*RES
1 ccff_head *4:15 42.4909 
2 *4:15 *507:A 23 
*END

*D_NET *5 0.00311553
*CONN
*P ccff_tail O
*I *529:X O *D sky130_fd_sc_hd__clkbuf_4
*CAP
1 ccff_tail 0.00106193
2 *529:X 0.000343008
3 *5:8 0.00140494
4 ccff_tail chanx_left_out[8] 0
5 ccff_tail top_grid_bottom_width_0_height_0_subtile_0__pin_I_2_ 0
6 ccff_tail *154:14 0
7 ccff_tail *157:33 8.62783e-05
8 ccff_tail *171:10 1.7992e-05
9 ccff_tail *183:10 0
10 *5:8 *44:12 0.00018515
11 *5:8 *120:12 4.04598e-06
12 *5:8 *184:20 1.21785e-05
13 *4:15 ccff_tail 0
*RES
1 *529:X *5:8 42.9093 
2 *5:8 ccff_tail 20.7595 
*END

*D_NET *6 0.00261778
*CONN
*P chanx_left_in[0] I
*I *518:A I *D sky130_fd_sc_hd__buf_1
*CAP
1 chanx_left_in[0] 0.000780776
2 *518:A 0
3 *6:15 0.000780776
4 *6:15 *415:A 0.000165593
5 *6:15 *7:17 0.000228599
6 *6:15 *42:13 0
7 *6:15 *110:48 9.24204e-05
8 *6:15 *150:26 1.69668e-05
9 *6:15 *173:8 0.00030457
10 *6:15 *175:18 0.00024808
11 *6:15 *176:20 0
*RES
1 chanx_left_in[0] *6:15 34.4355 
2 *6:15 *518:A 23 
*END

*D_NET *7 0.00210144
*CONN
*P chanx_left_in[1] I
*I *519:A I *D sky130_fd_sc_hd__buf_1
*CAP
1 chanx_left_in[1] 0.000584081
2 *519:A 0
3 *7:17 0.000584081
4 *7:17 *412:A 0.000169674
5 *7:17 *415:A 3.46954e-05
6 *7:17 *8:13 1.38991e-06
7 *7:17 *175:18 0.000472455
8 *7:17 *180:8 2.64616e-05
9 *6:15 *7:17 0.000228599
*RES
1 chanx_left_in[1] *7:17 31.3513 
2 *7:17 *519:A 23 
*END

*D_NET *8 0.000742483
*CONN
*P chanx_left_in[2] I
*I *520:A I *D sky130_fd_sc_hd__buf_1
*CAP
1 chanx_left_in[2] 0.000370547
2 *520:A 0
3 *8:13 0.000370547
4 *8:13 *9:13 0
5 *8:13 *164:20 0
6 *7:17 *8:13 1.38991e-06
*RES
1 chanx_left_in[2] *8:13 28.6417 
2 *8:13 *520:A 23 
*END

*D_NET *9 0.000736381
*CONN
*P chanx_left_in[3] I
*I *521:A I *D sky130_fd_sc_hd__buf_1
*CAP
1 chanx_left_in[3] 0.000368191
2 *521:A 0
3 *9:13 0.000368191
4 *9:13 *522:A 0
5 *9:13 *151:24 0
6 *9:13 *164:20 0
7 *8:13 *9:13 0
*RES
1 chanx_left_in[3] *9:13 28.6417 
2 *9:13 *521:A 23 
*END

*D_NET *10 0.000846875
*CONN
*P chanx_left_in[4] I
*I *522:A I *D sky130_fd_sc_hd__buf_1
*CAP
1 chanx_left_in[4] 0.000317955
2 *522:A 0.000317955
3 *522:A *523:A 0
4 *522:A *204:12 0.000210966
5 *9:13 *522:A 0
*RES
1 chanx_left_in[4] *522:A 49.5439 
*END

*D_NET *11 0.000991223
*CONN
*P chanx_left_in[5] I
*I *523:A I *D sky130_fd_sc_hd__clkbuf_1
*CAP
1 chanx_left_in[5] 0.000390213
2 *523:A 0.000390213
3 *523:A *524:A 0
4 *523:A *164:20 0.000105399
5 *523:A *204:12 0.000105399
6 *522:A *523:A 0
*RES
1 chanx_left_in[5] *523:A 48.673 
*END

*D_NET *12 0.000552951
*CONN
*P chanx_left_in[6] I
*I *524:A I *D sky130_fd_sc_hd__buf_1
*CAP
1 chanx_left_in[6] 0.000276475
2 *524:A 0.000276475
3 *524:A *13:13 0
4 *524:A *15:8 0
5 *524:A *164:20 0
6 *523:A *524:A 0
*RES
1 chanx_left_in[6] *524:A 49.5289 
*END

*D_NET *13 0.00290419
*CONN
*P chanx_left_in[7] I
*I *525:A I *D sky130_fd_sc_hd__clkbuf_1
*CAP
1 chanx_left_in[7] 0.00109132
2 *525:A 0
3 *13:13 0.00109132
4 *13:13 chanx_left_out[2] 0.000208738
5 *13:13 chanx_left_out[3] 0
6 *13:13 *532:A 0.000249918
7 *13:13 *14:17 1.22906e-05
8 *13:13 *148:8 5.26308e-05
9 *13:13 *205:8 0.000197964
10 *524:A *13:13 0
*RES
1 chanx_left_in[7] *13:13 35.4815 
2 *13:13 *525:A 23 
*END

*D_NET *14 0.00257578
*CONN
*P chanx_left_in[8] I
*I *508:A I *D sky130_fd_sc_hd__buf_1
*CAP
1 chanx_left_in[8] 0.00101168
2 *508:A 0
3 *14:17 0.00101168
4 *14:17 chanx_left_out[1] 0
5 *14:17 chanx_left_out[2] 0.000540136
6 *13:13 *14:17 1.22906e-05
*RES
1 chanx_left_in[8] *14:17 34.3499 
2 *14:17 *508:A 23 
*END

*D_NET *15 0.00143634
*CONN
*P chanx_left_out[0] O
*I *530:X O *D sky130_fd_sc_hd__clkbuf_4
*CAP
1 chanx_left_out[0] 0.000436074
2 *530:X 0.000279011
3 *15:8 0.000715085
4 chanx_left_out[0] *163:10 0
5 *15:8 *164:20 6.17437e-06
6 *524:A *15:8 0
*RES
1 *530:X *15:8 42.4329 
2 *15:8 chanx_left_out[0] 9.40429 
*END

*D_NET *16 0.00130884
*CONN
*P chanx_left_out[1] O
*I *531:X O *D sky130_fd_sc_hd__clkbuf_4
*CAP
1 chanx_left_out[1] 0.000604015
2 *531:X 0.000604015
3 chanx_left_out[1] *164:20 0.000100805
4 *14:17 chanx_left_out[1] 0
*RES
1 *531:X chanx_left_out[1] 49.3514 
*END

*D_NET *17 0.00163164
*CONN
*P chanx_left_out[2] O
*I *532:X O *D sky130_fd_sc_hd__clkbuf_4
*CAP
1 chanx_left_out[2] 0.000441386
2 *532:X 0.000441386
3 *13:13 chanx_left_out[2] 0.000208738
4 *14:17 chanx_left_out[2] 0.000540136
*RES
1 *532:X chanx_left_out[2] 49.3514 
*END

*D_NET *18 0.00101145
*CONN
*P chanx_left_out[3] O
*I *533:X O *D sky130_fd_sc_hd__clkbuf_4
*CAP
1 chanx_left_out[3] 0.000505725
2 *533:X 0.000505725
3 *13:13 chanx_left_out[3] 0
*RES
1 *533:X chanx_left_out[3] 47.57 
*END

*D_NET *19 0.00116982
*CONN
*P chanx_left_out[4] O
*I *534:X O *D sky130_fd_sc_hd__clkbuf_4
*CAP
1 chanx_left_out[4] 0.000584911
2 *534:X 0.000584911
*RES
1 *534:X chanx_left_out[4] 49.3514 
*END

*D_NET *20 0.0014218
*CONN
*P chanx_left_out[5] O
*I *535:X O *D sky130_fd_sc_hd__clkbuf_4
*CAP
1 chanx_left_out[5] 9.92331e-05
2 *535:X 0.000532477
3 *20:10 0.000631711
4 *20:10 chanx_left_out[6] 0
5 *20:10 *32:17 5.18306e-05
6 *20:10 *168:10 0.00010655
*RES
1 *535:X *20:10 49.9004 
2 *20:10 chanx_left_out[5] 3.34536 
*END

*D_NET *21 0.00128054
*CONN
*P chanx_left_out[6] O
*I *536:X O *D sky130_fd_sc_hd__clkbuf_4
*CAP
1 chanx_left_out[6] 0.000531706
2 *536:X 0.000531706
3 chanx_left_out[6] *168:10 7.26327e-05
4 chanx_left_out[6] *170:14 0.000144494
5 *20:10 chanx_left_out[6] 0
*RES
1 *536:X chanx_left_out[6] 49.3514 
*END

*D_NET *22 0.00102395
*CONN
*P chanx_left_out[7] O
*I *537:X O *D sky130_fd_sc_hd__clkbuf_4
*CAP
1 chanx_left_out[7] 0.000478519
2 *537:X 0.000478519
3 chanx_left_out[7] *537:A 3.22051e-05
4 chanx_left_out[7] *168:10 3.47032e-05
*RES
1 *537:X chanx_left_out[7] 47.57 
*END

*D_NET *23 0.00130723
*CONN
*P chanx_left_out[8] O
*I *538:X O *D sky130_fd_sc_hd__clkbuf_4
*CAP
1 chanx_left_out[8] 0.000545874
2 *538:X 0.000545874
3 chanx_left_out[8] *537:A 2.93747e-05
4 chanx_left_out[8] *538:A 0.00018611
5 ccff_tail chanx_left_out[8] 0
*RES
1 *538:X chanx_left_out[8] 49.3514 
*END

*D_NET *24 0.0118581
*CONN
*P chanx_right_in[0] I
*I *509:A I *D sky130_fd_sc_hd__buf_1
*CAP
1 chanx_right_in[0] 0.00588399
2 *509:A 0
3 *24:17 0.00588399
4 *24:17 *501:A 2.12347e-06
5 *24:17 *25:13 0
6 *24:17 *42:13 0
7 *24:17 *149:23 3.27399e-05
8 *24:17 *169:25 0
9 *24:17 *174:14 0
10 *24:17 *176:10 4.59758e-05
11 *24:17 *178:12 9.28078e-06
*RES
1 chanx_right_in[0] *24:17 42.8966 
2 *24:17 *509:A 38 
*END

*D_NET *25 0.00138795
*CONN
*P chanx_right_in[1] I
*I *510:A I *D sky130_fd_sc_hd__buf_1
*CAP
1 chanx_right_in[1] 0.000466839
2 *510:A 0
3 *25:13 0.000466839
4 *25:13 *26:21 0
5 *25:13 *150:10 5.41288e-05
6 bottom_grid_top_width_0_height_0_subtile_0__pin_I_4_ *25:13 0
7 bottom_grid_top_width_0_height_0_subtile_0__pin_I_8_ *25:13 0.000400142
8 *24:17 *25:13 0
*RES
1 chanx_right_in[1] *25:13 30.1927 
2 *25:13 *510:A 23 
*END

*D_NET *26 0.00959696
*CONN
*P chanx_right_in[2] I
*I *511:A I *D sky130_fd_sc_hd__buf_1
*I *206:DIODE I *D sky130_fd_sc_hd__diode_2
*CAP
1 chanx_right_in[2] 0.00258546
2 *511:A 0
3 *206:DIODE 0.00016758
4 *26:35 0.00016758
5 *26:33 0.00137368
6 *26:21 0.00395914
7 *206:DIODE *151:8 3.42398e-05
8 *26:21 *356:A 7.12857e-05
9 *26:21 *431:D 2.67198e-05
10 *26:21 *27:19 0
11 *26:21 *93:18 0
12 *26:21 *103:79 2.30292e-05
13 *26:21 *111:8 4.78593e-05
14 *26:21 *111:20 7.88195e-05
15 *26:21 *111:44 2.30485e-05
16 *26:21 *112:12 0
17 *26:21 *112:21 9.98796e-05
18 *26:21 *140:27 8.85376e-05
19 *26:21 *160:24 0
20 *26:21 *182:12 0.000147386
21 *26:33 *425:CLK 4.97972e-05
22 *26:33 *494:A 0.000361932
23 *26:33 *539:A 0
24 *26:33 *111:20 0.000126656
25 *26:33 *174:30 0.000127551
26 *26:33 *176:20 3.67805e-05
27 *25:13 *26:21 0
*RES
1 chanx_right_in[2] *26:21 43.5842 
2 *26:21 *26:33 35.9214 
3 *26:33 *26:35 15 
4 *26:35 *206:DIODE 25.5271 
5 *26:35 *511:A 23 
*END

*D_NET *27 0.0080546
*CONN
*P chanx_right_in[3] I
*I *512:A I *D sky130_fd_sc_hd__buf_1
*CAP
1 chanx_right_in[3] 0.00253393
2 *512:A 0
3 *27:19 0.00253393
4 *27:19 *374:A 1.12349e-05
5 *27:19 *383:A 0.00012148
6 *27:19 *447:A 2.93747e-05
7 *27:19 *28:15 0
8 *27:19 *51:10 0
9 *27:19 *64:6 0.000221997
10 *27:19 *77:10 0.000124169
11 *27:19 *86:18 0.000132229
12 *27:19 *93:18 0.0016078
13 *27:19 *109:14 4.38756e-05
14 *27:19 *133:22 0.000139974
15 *27:19 *138:10 9.64275e-05
16 *27:19 *141:6 1.21972e-05
17 *27:19 *152:14 9.41704e-05
18 *27:19 *152:37 0.000246873
19 *27:19 *191:24 0.000104922
20 *26:21 *27:19 0
*RES
1 chanx_right_in[3] *27:19 45.9761 
2 *27:19 *512:A 23 
*END

*D_NET *28 0.00120066
*CONN
*P chanx_right_in[4] I
*I *513:A I *D sky130_fd_sc_hd__buf_1
*CAP
1 chanx_right_in[4] 0.000519255
2 *513:A 0
3 *28:15 0.000519255
4 *28:15 *420:A 0.000121465
5 *28:15 *29:17 0
6 *28:15 *153:10 4.06849e-05
7 *27:19 *28:15 0
*RES
1 chanx_right_in[4] *28:15 28.1389 
2 *28:15 *513:A 23 
*END

*D_NET *29 0.00208663
*CONN
*P chanx_right_in[5] I
*I *514:A I *D sky130_fd_sc_hd__clkbuf_1
*CAP
1 chanx_right_in[5] 0.000705088
2 *514:A 0
3 *29:17 0.000705088
4 *29:17 *30:15 0.000210966
5 *29:17 *55:10 0.000140927
6 *29:17 *99:8 0
7 *29:17 *156:12 9.84794e-05
8 *29:17 *162:31 0
9 *29:17 *162:46 0.000193877
10 *29:17 *189:10 3.22051e-05
11 *28:15 *29:17 0
*RES
1 chanx_right_in[5] *29:17 32.0569 
2 *29:17 *514:A 23 
*END

*D_NET *30 0.00208915
*CONN
*P chanx_right_in[6] I
*I *515:A I *D sky130_fd_sc_hd__buf_1
*CAP
1 chanx_right_in[6] 0.000798148
2 *515:A 0
3 *30:15 0.000798148
4 *30:15 *420:A 4.6318e-06
5 *30:15 *488:Z 6.17437e-06
6 *30:15 *31:13 0
7 *30:15 *146:8 4.08641e-05
8 *30:15 *147:10 0.000103356
9 *30:15 *155:14 5.41385e-05
10 *30:15 *162:31 0
11 *30:15 *162:46 5.16115e-05
12 *4:15 *30:15 2.11157e-05
13 *29:17 *30:15 0.000210966
*RES
1 chanx_right_in[6] *30:15 33.7732 
2 *30:15 *515:A 23 
*END

*D_NET *31 0.00138348
*CONN
*P chanx_right_in[7] I
*I *516:A I *D sky130_fd_sc_hd__clkbuf_1
*CAP
1 chanx_right_in[7] 0.000691738
2 *516:A 0
3 *31:13 0.000691738
4 *31:13 *32:17 0
5 *4:15 *31:13 0
6 *30:15 *31:13 0
*RES
1 chanx_right_in[7] *31:13 35.0187 
2 *31:13 *516:A 23 
*END

*D_NET *32 0.00546707
*CONN
*P chanx_right_in[8] I
*I *517:A I *D sky130_fd_sc_hd__buf_1
*CAP
1 chanx_right_in[8] 0.00217822
2 *517:A 0
3 *32:17 0.00217822
4 *32:17 *58:10 0.000219347
5 *32:17 *154:14 0
6 *32:17 *168:10 0.000839457
7 *4:15 *32:17 0
8 *20:10 *32:17 5.18306e-05
9 *31:13 *32:17 0
*RES
1 chanx_right_in[8] *32:17 40.5599 
2 *32:17 *517:A 23 
*END

*D_NET *33 0.00185588
*CONN
*P chanx_right_out[0] O
*I *539:X O *D sky130_fd_sc_hd__clkbuf_4
*CAP
1 chanx_right_out[0] 0.000480781
2 *539:X 0.000377479
3 *33:8 0.000858261
4 chanx_right_out[0] chanx_right_out[1] 0
5 *33:8 *34:10 0.000139357
*RES
1 *539:X *33:8 44.3386 
2 *33:8 chanx_right_out[0] 10.8129 
*END

*D_NET *34 0.00197371
*CONN
*P chanx_right_out[1] O
*I *540:X O *D sky130_fd_sc_hd__clkbuf_4
*CAP
1 chanx_right_out[1] 0.000510174
2 *540:X 0.000290977
3 *34:10 0.000801151
4 chanx_right_out[1] chanx_right_out[2] 0
5 chanx_right_out[1] *150:26 0
6 chanx_right_out[1] *175:18 0.000164365
7 *34:10 *539:A 4.9346e-05
8 *34:10 *174:30 1.83408e-05
9 chanx_right_out[0] chanx_right_out[1] 0
10 *33:8 *34:10 0.000139357
*RES
1 *540:X *34:10 42.93 
2 *34:10 chanx_right_out[1] 11.165 
*END

*D_NET *35 0.000785981
*CONN
*P chanx_right_out[2] O
*I *541:X O *D sky130_fd_sc_hd__clkbuf_4
*CAP
1 chanx_right_out[2] 0.000375158
2 *541:X 0.000375158
3 chanx_right_out[2] chanx_right_out[3] 0
4 chanx_right_out[2] *150:26 3.5664e-05
5 chanx_right_out[1] chanx_right_out[2] 0
*RES
1 *541:X chanx_right_out[2] 45.9957 
*END

*D_NET *36 0.00106335
*CONN
*P chanx_right_out[3] O
*I *542:X O *D sky130_fd_sc_hd__clkbuf_4
*CAP
1 chanx_right_out[3] 0.000513117
2 *542:X 0.000513117
3 chanx_right_out[3] chanx_right_out[4] 0
4 chanx_right_out[3] *470:A 1.57571e-05
5 chanx_right_out[3] *42:13 0
6 chanx_right_out[3] *81:22 1.6562e-05
7 chanx_right_out[3] *179:12 4.79883e-06
8 chanx_right_out[2] chanx_right_out[3] 0
*RES
1 *542:X chanx_right_out[3] 48.5643 
*END

*D_NET *37 0.00103487
*CONN
*P chanx_right_out[4] O
*I *543:X O *D sky130_fd_sc_hd__clkbuf_4
*CAP
1 chanx_right_out[4] 0.000344038
2 *543:X 0.000344038
3 chanx_right_out[4] chanx_right_out[5] 0
4 chanx_right_out[4] *42:13 0.000346792
5 chanx_right_out[3] chanx_right_out[4] 0
*RES
1 *543:X chanx_right_out[4] 46.7621 
*END

*D_NET *38 0.00109831
*CONN
*P chanx_right_out[5] O
*I *544:X O *D sky130_fd_sc_hd__clkbuf_4
*CAP
1 chanx_right_out[5] 0.000484687
2 *544:X 0.000484687
3 chanx_right_out[5] chanx_right_out[6] 0
4 chanx_right_out[5] *544:A 9.84851e-05
5 chanx_right_out[5] *42:13 0
6 chanx_right_out[5] *179:26 3.04516e-05
7 chanx_right_out[4] chanx_right_out[5] 0
*RES
1 *544:X chanx_right_out[5] 47.57 
*END

*D_NET *39 0.00135241
*CONN
*P chanx_right_out[6] O
*I *545:X O *D sky130_fd_sc_hd__clkbuf_4
*CAP
1 chanx_right_out[6] 5.33566e-05
2 *545:X 0.000545223
3 *39:12 0.000598579
4 *39:12 chanx_right_out[7] 0
5 *39:12 *52:12 1.32939e-05
6 *39:12 *179:26 0.00014196
7 chanx_right_out[5] chanx_right_out[6] 0
*RES
1 *545:X *39:12 49.2168 
2 *39:12 chanx_right_out[6] 2.2475 
*END

*D_NET *40 0.00107104
*CONN
*P chanx_right_out[7] O
*I *546:X O *D sky130_fd_sc_hd__clkbuf_4
*CAP
1 chanx_right_out[7] 0.000520626
2 *546:X 0.000520626
3 chanx_right_out[7] chanx_right_out[8] 0
4 chanx_right_out[7] *546:A 2.07484e-05
5 chanx_right_out[7] *52:12 9.03964e-06
6 *39:12 chanx_right_out[7] 0
*RES
1 *546:X chanx_right_out[7] 48.9164 
*END

*D_NET *41 0.0010394
*CONN
*P chanx_right_out[8] O
*I *547:X O *D sky130_fd_sc_hd__clkbuf_4
*CAP
1 chanx_right_out[8] 0.000497896
2 *547:X 0.000497896
3 chanx_right_out[8] *547:A 3.22879e-05
4 chanx_right_out[8] *112:12 6.17437e-06
5 chanx_right_out[8] *160:24 5.14746e-06
6 bottom_grid_top_width_0_height_0_subtile_0__pin_I_0_ chanx_right_out[8] 0
7 chanx_right_out[7] chanx_right_out[8] 0
*RES
1 *547:X chanx_right_out[8] 47.57 
*END

*D_NET *42 0.00660404
*CONN
*P prog_clk I
*I *493:A I *D sky130_fd_sc_hd__clkbuf_16
*CAP
1 prog_clk 0.00191504
2 *493:A 7.07258e-05
3 *42:13 0.00198577
4 *493:A *115:12 0.000139352
5 *42:13 *447:A 0.000637871
6 *42:13 *50:26 0
7 *42:13 *79:22 0
8 *42:13 *86:12 0.000205044
9 *42:13 *86:18 0
10 *42:13 *101:20 0.000339861
11 *42:13 *111:20 0.000135011
12 *42:13 *132:22 1.59388e-05
13 *42:13 *135:21 0.000278634
14 *42:13 *177:12 0.000240288
15 *42:13 *178:28 7.51607e-05
16 *42:13 *202:22 0.000218545
17 chanx_right_out[3] *42:13 0
18 chanx_right_out[4] *42:13 0.000346792
19 chanx_right_out[5] *42:13 0
20 *6:15 *42:13 0
21 *24:17 *42:13 0
*RES
1 prog_clk *42:13 37.3376 
2 *42:13 *493:A 39.5743 
*END

*D_NET *43 0.00116927
*CONN
*P top_grid_bottom_width_0_height_0_subtile_0__pin_I_2_ O
*I *548:X O *D sky130_fd_sc_hd__clkbuf_4
*CAP
1 top_grid_bottom_width_0_height_0_subtile_0__pin_I_2_ 0.000584637
2 *548:X 0.000584637
3 ccff_tail top_grid_bottom_width_0_height_0_subtile_0__pin_I_2_ 0
4 *4:15 top_grid_bottom_width_0_height_0_subtile_0__pin_I_2_ 0
*RES
1 *548:X top_grid_bottom_width_0_height_0_subtile_0__pin_I_2_ 49.3514 
*END

*D_NET *44 0.00206422
*CONN
*P top_grid_bottom_width_0_height_0_subtile_0__pin_I_6_ O
*I *549:X O *D sky130_fd_sc_hd__clkbuf_4
*CAP
1 top_grid_bottom_width_0_height_0_subtile_0__pin_I_6_ 0.000326514
2 *549:X 0.000596235
3 *44:12 0.000922749
4 *44:12 *162:46 3.3577e-05
5 *4:15 top_grid_bottom_width_0_height_0_subtile_0__pin_I_6_ 0
6 *4:15 *44:12 0
7 *5:8 *44:12 0.00018515
*RES
1 *549:X *44:12 49.3825 
2 *44:12 top_grid_bottom_width_0_height_0_subtile_0__pin_I_6_ 7.0325 
*END

*D_NET *47 0.000511055
*CONN
*I *363:A I *D sky130_fd_sc_hd__clkbuf_1
*I *362:X O *D sky130_fd_sc_hd__clkbuf_1
*CAP
1 *363:A 0.000196683
2 *362:X 0.000196683
3 *363:A *361:A 1.12349e-05
4 *363:A *362:A 7.83334e-05
5 *363:A *151:24 2.812e-05
*RES
1 *362:X *363:A 49.5214 
*END

*D_NET *48 0.00198724
*CONN
*I *365:A I *D sky130_fd_sc_hd__clkbuf_1
*I *364:X O *D sky130_fd_sc_hd__clkbuf_1
*CAP
1 *365:A 0.000209433
2 *364:X 0.000169246
3 *48:10 0.000378679
4 *365:A *379:A 5.79559e-05
5 *365:A *478:TE_B 9.84851e-05
6 *365:A *86:12 7.80069e-05
7 *365:A *197:36 0.000314587
8 *48:10 *51:14 0.00031721
9 *48:10 *53:16 5.50049e-05
10 *48:10 *81:8 0.000293878
11 *48:10 *87:18 1.47563e-05
*RES
1 *364:X *48:10 42.9921 
2 *48:10 *365:A 43.5514 
*END

*D_NET *49 0.000477191
*CONN
*I *370:A I *D sky130_fd_sc_hd__clkbuf_1
*I *369:X O *D sky130_fd_sc_hd__clkbuf_1
*CAP
1 *370:A 0
2 *369:X 0.000133356
3 *49:10 0.000133356
4 *49:10 *128:10 5.84798e-05
5 *49:10 *150:26 1.83408e-05
6 *49:10 *176:20 0.000133658
*RES
1 *369:X *49:10 40.5271 
2 *49:10 *370:A 38 
*END

*D_NET *50 0.00628618
*CONN
*I *372:A I *D sky130_fd_sc_hd__clkbuf_1
*I *371:X O *D sky130_fd_sc_hd__clkbuf_1
*CAP
1 *372:A 0
2 *371:X 0.000417394
3 *50:26 0.00157594
4 *50:10 0.00199333
5 *50:10 *110:48 1.94693e-05
6 *50:10 *175:18 3.56215e-05
7 *50:10 *176:20 8.19692e-05
8 *50:26 *373:A 0.000145919
9 *50:26 *87:18 0.000102364
10 *50:26 *102:39 0
11 *50:26 *160:24 6.16764e-05
12 *50:26 *174:14 0
13 *50:26 *178:28 0.00185249
14 *42:13 *50:26 0
*RES
1 *371:X *50:10 43.7068 
2 *50:10 *50:26 38.9127 
3 *50:26 *372:A 38 
*END

*D_NET *51 0.00286468
*CONN
*I *375:A I *D sky130_fd_sc_hd__clkbuf_1
*I *374:X O *D sky130_fd_sc_hd__clkbuf_1
*CAP
1 *375:A 0
2 *374:X 0.000112579
3 *51:14 0.000609338
4 *51:10 0.000721917
5 *51:10 *368:A 5.90675e-06
6 *51:10 *374:A 0
7 *51:10 *88:14 0
8 *51:10 *109:16 3.35628e-05
9 *51:10 *204:49 3.22465e-05
10 *51:14 *379:A 6.07611e-06
11 *51:14 *81:8 0.000198254
12 *51:14 *81:22 3.76619e-05
13 *51:14 *87:18 1.02387e-05
14 *51:14 *89:8 0
15 *51:14 *102:23 0