*SPEF "ieee 1481-1999"
*DESIGN "cby_8__1_"
*DATE "11:11:11 Fri 11 11, 1111"
*VENDOR "OpenRCX"
*PROGRAM "Parallel Extraction"
*VERSION "1.0"
*DESIGN_FLOW "NAME_SCOPE LOCAL" "PIN_CAP NONE"
*DIVIDER /
*DELIMITER :
*BUS_DELIMITER []
*T_UNIT 1 NS
*C_UNIT 1 PF
*R_UNIT 1 OHM
*L_UNIT 1 HENRY

*NAME_MAP
*1 ccff_head
*2 ccff_tail
*3 chany_bottom_in[0]
*4 chany_bottom_in[1]
*5 chany_bottom_in[2]
*6 chany_bottom_in[3]
*7 chany_bottom_in[4]
*8 chany_bottom_in[5]
*9 chany_bottom_in[6]
*10 chany_bottom_in[7]
*11 chany_bottom_in[8]
*12 chany_bottom_out[0]
*13 chany_bottom_out[1]
*14 chany_bottom_out[2]
*15 chany_bottom_out[3]
*16 chany_bottom_out[4]
*17 chany_bottom_out[5]
*18 chany_bottom_out[6]
*19 chany_bottom_out[7]
*20 chany_bottom_out[8]
*21 chany_top_in[0]
*22 chany_top_in[1]
*23 chany_top_in[2]
*24 chany_top_in[3]
*25 chany_top_in[4]
*26 chany_top_in[5]
*27 chany_top_in[6]
*28 chany_top_in[7]
*29 chany_top_in[8]
*30 chany_top_out[0]
*31 chany_top_out[1]
*32 chany_top_out[2]
*33 chany_top_out[3]
*34 chany_top_out[4]
*35 chany_top_out[5]
*36 chany_top_out[6]
*37 chany_top_out[7]
*38 chany_top_out[8]
*39 left_grid_right_width_0_height_0_subtile_0__pin_I_1_
*40 left_grid_right_width_0_height_0_subtile_0__pin_I_5_
*41 left_grid_right_width_0_height_0_subtile_0__pin_I_9_
*42 prog_clk
*43 right_grid_left_width_0_height_0_subtile_0__pin_outpad_0_
*46 _000_
*47 _001_
*48 _002_
*49 _003_
*50 _004_
*51 _005_
*52 _006_
*53 _007_
*54 _008_
*55 _009_
*56 _010_
*57 _011_
*58 _012_
*59 _013_
*60 _014_
*61 _015_
*62 _016_
*63 _017_
*64 _018_
*65 _019_
*66 _020_
*67 _021_
*68 _022_
*69 _023_
*70 _024_
*71 _025_
*72 _026_
*73 _027_
*74 _028_
*75 _029_
*76 _030_
*77 _031_
*78 _032_
*79 _033_
*80 _034_
*81 _035_
*82 _036_
*83 _037_
*84 _038_
*85 _039_
*86 _040_
*87 _041_
*88 _042_
*89 _043_
*90 _044_
*91 _045_
*92 _046_
*93 _047_
*94 clknet_0_prog_clk
*95 clknet_1_0__leaf_prog_clk
*96 clknet_1_1__leaf_prog_clk
*97 mem_left_ipin_0\.DFF_0_\.Q
*98 mem_left_ipin_0\.DFF_1_\.Q
*99 mem_left_ipin_0\.DFF_2_\.Q
*100 mem_right_ipin_0\.DFF_0_\.Q
*101 mem_right_ipin_0\.DFF_1_\.Q
*102 mem_right_ipin_0\.DFF_2_\.Q
*103 mem_right_ipin_1\.DFF_0_\.Q
*104 mem_right_ipin_1\.DFF_1_\.Q
*105 mem_right_ipin_2\.DFF_0_\.Q
*106 mux_left_ipin_0\.INVTX1_0_\.out
*107 mux_left_ipin_0\.INVTX1_1_\.out
*108 mux_left_ipin_0\.INVTX1_2_\.out
*109 mux_left_ipin_0\.INVTX1_3_\.out
*110 mux_left_ipin_0\.INVTX1_4_\.out
*111 mux_left_ipin_0\.INVTX1_5_\.out
*112 mux_left_ipin_0\.mux_l1_in_0_\.TGATE_0_\.out
*113 mux_left_ipin_0\.mux_l1_in_1_\.TGATE_0_\.out
*114 mux_left_ipin_0\.mux_l1_in_2_\.TGATE_0_\.out
*115 mux_left_ipin_0\.mux_l2_in_0_\.TGATE_0_\.out
*116 mux_left_ipin_0\.mux_l2_in_1_\.TGATE_0_\.out
*117 mux_left_ipin_0\.mux_l3_in_0_\.TGATE_0_\.out
*118 mux_right_ipin_0\.INVTX1_2_\.out
*119 mux_right_ipin_0\.INVTX1_3_\.out
*120 mux_right_ipin_0\.INVTX1_4_\.out
*121 mux_right_ipin_0\.INVTX1_5_\.out
*122 mux_right_ipin_0\.mux_l1_in_0_\.TGATE_0_\.out
*123 mux_right_ipin_0\.mux_l1_in_1_\.TGATE_0_\.out
*124 mux_right_ipin_0\.mux_l1_in_2_\.TGATE_0_\.out
*125 mux_right_ipin_0\.mux_l2_in_0_\.TGATE_0_\.out
*126 mux_right_ipin_0\.mux_l2_in_1_\.TGATE_0_\.out
*127 mux_right_ipin_0\.mux_l3_in_0_\.TGATE_0_\.out
*128 mux_right_ipin_1\.INVTX1_0_\.out
*129 mux_right_ipin_1\.INVTX1_1_\.out
*130 mux_right_ipin_1\.mux_l1_in_0_\.TGATE_0_\.out
*131 mux_right_ipin_1\.mux_l2_in_0_\.TGATE_0_\.out
*132 mux_right_ipin_2\.INVTX1_0_\.out
*133 mux_right_ipin_2\.INVTX1_1_\.out
*134 mux_right_ipin_2\.mux_l1_in_0_\.TGATE_0_\.out
*135 mux_right_ipin_2\.mux_l2_in_0_\.TGATE_0_\.out
*136 net1
*137 net10
*138 net11
*139 net12
*140 net13
*141 net14
*142 net15
*143 net16
*144 net17
*145 net18
*146 net19
*147 net2
*148 net20
*149 net21
*150 net22
*151 net23
*152 net24
*153 net25
*154 net26
*155 net27
*156 net28
*157 net29
*158 net3
*159 net30
*160 net31
*161 net32
*162 net33
*163 net34
*164 net35
*165 net36
*166 net37
*167 net38
*168 net39
*169 net4
*170 net40
*171 net41
*172 net42
*173 net43
*174 net44
*175 net45
*176 net46
*177 net47
*178 net48
*179 net49
*180 net5
*181 net50
*182 net51
*183 net52
*184 net53
*185 net54
*186 net55
*187 net6
*188 net7
*189 net8
*190 net9
*191 FILLER_0_0_12
*192 FILLER_0_0_19
*193 FILLER_0_0_27
*194 FILLER_0_0_32
*195 FILLER_0_0_43
*196 FILLER_0_0_50
*197 FILLER_0_0_57
*198 FILLER_0_0_63
*199 FILLER_0_0_71
*200 FILLER_0_0_76
*201 FILLER_0_0_85
*202 FILLER_0_0_89
*203 FILLER_0_10_101
*204 FILLER_0_10_24
*205 FILLER_0_10_3
*206 FILLER_0_10_35
*207 FILLER_0_10_67
*208 FILLER_0_10_74
*209 FILLER_0_10_83
*210 FILLER_0_10_88
*211 FILLER_0_10_94
*212 FILLER_0_11_3
*213 FILLER_0_11_60
*214 FILLER_0_11_81
*215 FILLER_0_11_87
*216 FILLER_0_11_91
*217 FILLER_0_12_15
*218 FILLER_0_12_49
*219 FILLER_0_12_72
*220 FILLER_0_12_85
*221 FILLER_0_12_93
*222 FILLER_0_13_3
*223 FILLER_0_13_38
*224 FILLER_0_13_46
*225 FILLER_0_13_66
*226 FILLER_0_13_79
*227 FILLER_0_13_85
*228 FILLER_0_13_95
*229 FILLER_0_1_102
*230 FILLER_0_1_25
*231 FILLER_0_1_3
*232 FILLER_0_1_36
*233 FILLER_0_1_48
*234 FILLER_0_1_57
*235 FILLER_0_1_69
*236 FILLER_0_1_81
*237 FILLER_0_1_93
*238 FILLER_0_1_98
*239 FILLER_0_2_18
*240 FILLER_0_2_27
*241 FILLER_0_2_35
*242 FILLER_0_2_47
*243 FILLER_0_2_59
*244 FILLER_0_2_71
*245 FILLER_0_2_83
*246 FILLER_0_2_85
*247 FILLER_0_2_97
*248 FILLER_0_3_3
*249 FILLER_0_3_38
*250 FILLER_0_3_45
*251 FILLER_0_3_51
*252 FILLER_0_3_55
*253 FILLER_0_3_57
*254 FILLER_0_3_69
*255 FILLER_0_3_81
*256 FILLER_0_3_93
*257 FILLER_0_4_14
*258 FILLER_0_4_24
*259 FILLER_0_4_32
*260 FILLER_0_4_42
*261 FILLER_0_4_49
*262 FILLER_0_4_56
*263 FILLER_0_4_80
*264 FILLER_0_4_85
*265 FILLER_0_4_9
*266 FILLER_0_4_97
*267 FILLER_0_5_3
*268 FILLER_0_5_57
*269 FILLER_0_5_69
*270 FILLER_0_5_86
*271 FILLER_0_5_92
*272 FILLER_0_6_21
*273 FILLER_0_6_29
*274 FILLER_0_6_3
*275 FILLER_0_6_41
*276 FILLER_0_6_88
*277 FILLER_0_6_96
*278 FILLER_0_7_26
*279 FILLER_0_7_46
*280 FILLER_0_7_9
*281 FILLER_0_7_98
*282 FILLER_0_8_101
*283 FILLER_0_8_68
*284 FILLER_0_8_83
*285 FILLER_0_9_3
*286 FILLER_0_9_63
*287 FILLER_0_9_71
*288 FILLER_0_9_97
*289 PHY_0
*290 PHY_1
*291 PHY_10
*292 PHY_11
*293 PHY_12
*294 PHY_13
*295 PHY_14
*296 PHY_15
*297 PHY_16
*298 PHY_17
*299 PHY_18
*300 PHY_19
*301 PHY_2
*302 PHY_20
*303 PHY_21
*304 PHY_22
*305 PHY_23
*306 PHY_24
*307 PHY_25
*308 PHY_26
*309 PHY_27
*310 PHY_3
*311 PHY_4
*312 PHY_5
*313 PHY_6
*314 PHY_7
*315 PHY_8
*316 PHY_9
*317 TAP_28
*318 TAP_29
*319 TAP_30
*320 TAP_31
*321 TAP_32
*322 TAP_33
*323 TAP_34
*324 TAP_35
*325 TAP_36
*326 TAP_37
*327 TAP_38
*328 TAP_39
*329 TAP_40
*330 TAP_41
*331 TAP_42
*332 TAP_43
*333 TAP_44
*334 TAP_45
*335 TAP_46
*336 TAP_47
*337 TAP_48
*338 TAP_49
*339 TAP_50
*340 TAP_51
*341 _052_
*342 _053_
*343 _054_
*344 _055_
*345 _056_
*346 _057_
*347 _058_
*348 _059_
*349 _060_
*350 _061_
*351 _062_
*352 _063_
*353 _064_
*354 _065_
*355 _066_
*356 _067_
*357 _068_
*358 _069_
*359 _070_
*360 _071_
*361 _072_
*362 _073_
*363 _074_
*364 _075_
*365 _076_
*366 _077_
*367 _078_
*368 _079_
*369 _080_
*370 _081_
*371 _082_
*372 _083_
*373 _084_
*374 _085_
*375 _086_
*376 _087_
*377 _088_
*378 _089_
*379 _090_
*380 _091_
*381 _092_
*382 _093_
*383 _094_
*384 _095_
*385 _096_
*386 _097_
*387 _098_
*388 _099_
*389 _100_
*390 _101_
*391 _102_
*392 _103_
*393 _104_
*394 _105_
*395 _106_
*396 _107_
*397 _108_
*398 _109_
*399 _110_
*400 _111_
*401 _112_
*402 _113_
*403 _114_
*404 _115_
*405 _116_
*406 _117_
*407 _118_
*408 _119_
*409 _120_
*410 _121_
*411 _122_
*412 _123_
*413 _124_
*414 _125_
*415 _126_
*416 _127_
*417 _132_
*418 _133_
*419 _134_
*420 _135_
*421 _136_
*422 _137_
*423 _138_
*424 _139_
*425 _140_
*426 _141_
*427 _142_
*428 _143_
*429 _144_
*430 _145_
*431 _146_
*432 _147_
*433 _148_
*434 _149_
*435 _150_
*436 _150__43
*437 _151_
*438 _152_
*439 _153_
*440 _154_
*441 _155_
*442 _156_
*443 _157_
*444 _158_
*445 _159_
*446 _160_
*447 _161_
*448 _162_
*449 _163_
*450 _163__44
*451 _164_
*452 _165_
*453 _166_
*454 _167_
*455 _168_
*456 _169_
*457 _170_
*458 _171_
*459 _172_
*460 _173_
*461 _174_
*462 _174__45
*463 _175_
*464 _176_
*465 _177_
*466 _178_
*467 _178__46
*468 _179_
*469 _180_
*470 _181_
*471 clkbuf_0_prog_clk
*472 clkbuf_1_0__f_prog_clk
*473 clkbuf_1_1__f_prog_clk
*474 hold1
*475 hold2
*476 hold3
*477 hold4
*478 hold5
*479 hold6
*480 hold7
*481 hold8
*482 hold9
*483 input1
*484 input10
*485 input11
*486 input12
*487 input13
*488 input14
*489 input15
*490 input16
*491 input17
*492 input18
*493 input19
*494 input2
*495 input3
*496 input4
*497 input5
*498 input6
*499 input7
*500 input8
*501 input9
*502 output20
*503 output21
*504 output22
*505 output23
*506 output24
*507 output25
*508 output26
*509 output27
*510 output28
*511 output29
*512 output30
*513 output31
*514 output32
*515 output33
*516 output34
*517 output35
*518 output36
*519 output37
*520 output38
*521 output39
*522 output40
*523 output41
*524 output42

*PORTS
ccff_head I
ccff_tail O
chany_bottom_in[0] I
chany_bottom_in[1] I
chany_bottom_in[2] I
chany_bottom_in[3] I
chany_bottom_in[4] I
chany_bottom_in[5] I
chany_bottom_in[6] I
chany_bottom_in[7] I
chany_bottom_in[8] I
chany_bottom_out[0] O
chany_bottom_out[1] O
chany_bottom_out[2] O
chany_bottom_out[3] O
chany_bottom_out[4] O
chany_bottom_out[5] O
chany_bottom_out[6] O
chany_bottom_out[7] O
chany_bottom_out[8] O
chany_top_in[0] I
chany_top_in[1] I
chany_top_in[2] I
chany_top_in[3] I
chany_top_in[4] I
chany_top_in[5] I
chany_top_in[6] I
chany_top_in[7] I
chany_top_in[8] I
chany_top_out[0] O
chany_top_out[1] O
chany_top_out[2] O
chany_top_out[3] O
chany_top_out[4] O
chany_top_out[5] O
chany_top_out[6] O
chany_top_out[7] O
chany_top_out[8] O
left_grid_right_width_0_height_0_subtile_0__pin_I_1_ O
left_grid_right_width_0_height_0_subtile_0__pin_I_5_ O
left_grid_right_width_0_height_0_subtile_0__pin_I_9_ O
prog_clk I
right_grid_left_width_0_height_0_subtile_0__pin_outpad_0_ O

*D_NET *1 0.00123846
*CONN
*P ccff_head I
*I *483:A I *D sky130_fd_sc_hd__clkbuf_1
*CAP
1 ccff_head 0.000536518
2 *483:A 0
3 *1:17 0.000536518
4 *1:17 ccff_tail 0
5 *1:17 right_grid_left_width_0_height_0_subtile_0__pin_outpad_0_ 4.98839e-05
6 *1:17 *492:A 1.07531e-05
7 *1:17 *2:10 2.30292e-05
8 *1:17 *148:37 8.17547e-05
*RES
1 ccff_head *1:17 29.0297 
2 *1:17 *483:A 23 
*END

*D_NET *2 0.00107415
*CONN
*P ccff_tail O
*I *502:X O *D sky130_fd_sc_hd__clkbuf_4
*CAP
1 ccff_tail 0.000283415
2 *502:X 0.000242146
3 *2:10 0.00052556
4 *2:10 *492:A 0
5 *2:10 *29:13 0
6 *2:10 *148:37 0
7 *1:17 ccff_tail 0
8 *1:17 *2:10 2.30292e-05
*RES
1 *502:X *2:10 42.4639 
2 *2:10 ccff_tail 8.75787 
*END

*D_NET *3 0.00327635
*CONN
*P chany_bottom_in[0] I
*I *494:A I *D sky130_fd_sc_hd__buf_1
*CAP
1 chany_bottom_in[0] 0.00093729
2 *494:A 0
3 *3:11 0.00093729
4 *3:11 chany_bottom_out[0] 0.000128401
5 *3:11 *4:17 0.000737079
6 *3:11 *84:16 4.0367e-05
7 *3:11 *100:64 0.000142173
8 *3:11 *100:78 9.77405e-05
9 *3:11 *158:26 0.000136738
10 *3:11 *160:10 0.000119272
*RES
1 chany_bottom_in[0] *3:11 38.9871 
2 *3:11 *494:A 23 
*END

*D_NET *4 0.00335072
*CONN
*P chany_bottom_in[1] I
*I *495:A I *D sky130_fd_sc_hd__buf_1
*CAP
1 chany_bottom_in[1] 0.000836608
2 *495:A 0
3 *4:17 0.000836608
4 *4:17 chany_bottom_out[0] 0
5 *4:17 *100:78 6.16439e-05
6 *4:17 *119:10 5.56279e-05
7 *4:17 *139:42 0.000310647
8 *4:17 *140:29 5.44006e-05
9 *4:17 *147:10 0.000106318
10 *4:17 *149:8 6.38845e-05
11 *4:17 *160:10 0.0002879
12 *3:11 *4:17 0.000737079
*RES
1 chany_bottom_in[1] *4:17 37.2679 
2 *4:17 *495:A 23 
*END

*D_NET *5 0.00101794
*CONN
*P chany_bottom_in[2] I
*I *496:A I *D sky130_fd_sc_hd__buf_1
*CAP
1 chany_bottom_in[2] 0.000499405
2 *496:A 0.000499405
3 *496:A *84:16 8.98318e-06
4 *496:A *100:64 0
5 *496:A *140:29 0
6 *496:A *158:26 1.01436e-05
*RES
1 chany_bottom_in[2] *496:A 47.3214 
*END

*D_NET *6 0.000987412
*CONN
*P chany_bottom_in[3] I
*I *497:A I *D sky130_fd_sc_hd__buf_1
*CAP
1 chany_bottom_in[3] 0.000394349
2 *497:A 0.000394349
3 *497:A *42:13 0.000198714
4 *497:A *100:56 0
*RES
1 chany_bottom_in[3] *497:A 47.4664 
*END

*D_NET *7 0.000938915
*CONN
*P chany_bottom_in[4] I
*I *498:A I *D sky130_fd_sc_hd__buf_1
*CAP
1 chany_bottom_in[4] 0.000438631
2 *498:A 0.000438631
3 *498:A *140:37 0
4 *498:A *180:12 6.16531e-05
*RES
1 chany_bottom_in[4] *498:A 47.4664 
*END

*D_NET *8 0.00087874
*CONN
*P chany_bottom_in[5] I
*I *499:A I *D sky130_fd_sc_hd__buf_1
*CAP
1 chany_bottom_in[5] 0.00043937
2 *499:A 0.00043937
*RES
1 chany_bottom_in[5] *499:A 47.4664 
*END

*D_NET *9 0.000894959
*CONN
*P chany_bottom_in[6] I
*I *500:A I *D sky130_fd_sc_hd__clkbuf_1
*CAP
1 chany_bottom_in[6] 0.000447479
2 *500:A 0.000447479
*RES
1 chany_bottom_in[6] *500:A 47.3214 
*END

*D_NET *10 0.000894959
*CONN
*P chany_bottom_in[7] I
*I *501:A I *D sky130_fd_sc_hd__clkbuf_1
*CAP
1 chany_bottom_in[7] 0.000447479
2 *501:A 0.000447479
3 *501:A *159:10 0
*RES
1 chany_bottom_in[7] *501:A 47.3214 
*END

*D_NET *11 0.00157982
*CONN
*P chany_bottom_in[8] I
*I *484:A I *D sky130_fd_sc_hd__buf_1
*CAP
1 chany_bottom_in[8] 0.000575306
2 *484:A 0
3 *11:11 0.000575306
4 *11:11 *30:8 0.000349944
5 *11:11 *31:12 0
6 *11:11 *159:10 4.002e-05
7 *11:11 *165:16 3.92407e-05
*RES
1 chany_bottom_in[8] *11:11 27.6357 
2 *11:11 *484:A 23 
*END

*D_NET *12 0.000624343
*CONN
*P chany_bottom_out[0] O
*I *503:X O *D sky130_fd_sc_hd__clkbuf_4
*CAP
1 chany_bottom_out[0] 0.000247971
2 *503:X 0.000247971
3 chany_bottom_out[0] chany_bottom_out[1] 0
4 chany_bottom_out[0] *42:13 0
5 *3:11 chany_bottom_out[0] 0.000128401
6 *4:17 chany_bottom_out[0] 0
*RES
1 *503:X chany_bottom_out[0] 49.5289 
*END

*D_NET *13 0.00133577
*CONN
*P chany_bottom_out[1] O
*I *504:X O *D sky130_fd_sc_hd__clkbuf_4
*CAP
1 chany_bottom_out[1] 0.000125938
2 *504:X 0.000456352
3 *13:12 0.00058229
4 chany_bottom_out[1] chany_bottom_out[2] 0
5 *13:12 *14:10 2.44152e-05
6 *13:12 *101:12 0
7 *13:12 *102:18 4.6595e-05
8 *13:12 *151:20 0.00010018
9 chany_bottom_out[0] chany_bottom_out[1] 0
*RES
1 *504:X *13:12 45.1361 
2 *13:12 chany_bottom_out[1] 8.4144 
*END

*D_NET *14 0.000753909
*CONN
*P chany_bottom_out[2] O
*I *505:X O *D sky130_fd_sc_hd__clkbuf_4
*CAP
1 chany_bottom_out[2] 9.15931e-05
2 *505:X 0.000273154
3 *14:10 0.000364747
4 chany_bottom_out[2] chany_bottom_out[3] 0
5 *14:10 *101:12 0
6 chany_bottom_out[1] chany_bottom_out[2] 0
7 *13:12 *14:10 2.44152e-05
*RES
1 *505:X *14:10 42.0289 
2 *14:10 chany_bottom_out[2] 8.32853 
*END

*D_NET *15 0.00118639
*CONN
*P chany_bottom_out[3] O
*I *506:X O *D sky130_fd_sc_hd__clkbuf_4
*CAP
1 chany_bottom_out[3] 9.15931e-05
2 *506:X 0.000366553
3 *15:12 0.000458146
4 chany_bottom_out[3] chany_bottom_out[4] 0
5 *15:12 *352:A 9.67842e-05
6 *15:12 *506:A 0
7 *15:12 *16:10 0.000150107
8 *15:12 *80:12 2.32101e-05
9 *15:12 *101:12 0
10 chany_bottom_out[2] chany_bottom_out[3] 0
*RES
1 *506:X *15:12 45.3639 
2 *15:12 chany_bottom_out[3] 8.32853 
*END

*D_NET *16 0.00109883
*CONN
*P chany_bottom_out[4] O
*I *507:X O *D sky130_fd_sc_hd__clkbuf_4
*CAP
1 chany_bottom_out[4] 0.000119953
2 *507:X 0.000354406
3 *16:10 0.000474359
4 chany_bottom_out[4] chany_bottom_out[5] 0
5 *16:10 *101:12 0
6 chany_bottom_out[3] chany_bottom_out[4] 0
7 *15:12 *16:10 0.000150107
*RES
1 *507:X *16:10 44.3696 
2 *16:10 chany_bottom_out[4] 8.4144 
*END

*D_NET *17 0.00051617
*CONN
*P chany_bottom_out[5] O
*I *508:X O *D sky130_fd_sc_hd__clkbuf_4
*CAP
1 chany_bottom_out[5] 0.000258085
2 *508:X 0.000258085
3 chany_bottom_out[5] chany_bottom_out[6] 0
4 chany_bottom_out[4] chany_bottom_out[5] 0
*RES
1 *508:X chany_bottom_out[5] 49.1767 
*END

*D_NET *18 0.00286291
*CONN
*P chany_bottom_out[6] O
*I *509:X O *D sky130_fd_sc_hd__clkbuf_4
*CAP
1 chany_bottom_out[6] 0.000383457
2 *509:X 0.000704211
3 *18:6 0.00108767
4 chany_bottom_out[6] chany_bottom_out[7] 0
5 chany_bottom_out[6] *19:12 0
6 chany_bottom_out[6] *138:18 0
7 chany_bottom_out[6] *140:29 0
8 *18:6 *349:A 0.000102389
9 *18:6 *463:TE_B 0.000111621
10 *18:6 *129:6 0.000139347
11 *18:6 *130:25 1.83618e-05
12 *18:6 *140:14 0.00010018
13 *18:6 *140:29 0.000215671
14 chany_bottom_out[5] chany_bottom_out[6] 0
*RES
1 *509:X *18:6 36.0086 
2 *18:6 chany_bottom_out[6] 27.1624 
*END

*D_NET *19 0.00116433
*CONN
*P chany_bottom_out[7] O
*I *510:X O *D sky130_fd_sc_hd__clkbuf_4
*CAP
1 chany_bottom_out[7] 0.000127961
2 *510:X 0.000302263
3 *19:12 0.000430223
4 chany_bottom_out[7] chany_bottom_out[8] 0
5 *19:12 chany_bottom_out[8] 6.58207e-05
6 *19:12 *140:10 0.000238064
7 *19:12 *178:10 0
8 chany_bottom_out[6] chany_bottom_out[7] 0
9 chany_bottom_out[6] *19:12 0
*RES
1 *510:X *19:12 49.8382 
2 *19:12 chany_bottom_out[7] 0.5096 
*END

*D_NET *20 0.00205696
*CONN
*P chany_bottom_out[8] O
*I *511:X O *D sky130_fd_sc_hd__clkbuf_4
*CAP
1 chany_bottom_out[8] 0.000138063
2 *511:X 0.000554043
3 *20:10 0.000692106
4 chany_bottom_out[8] left_grid_right_width_0_height_0_subtile_0__pin_I_1_ 0
5 *20:10 *23:17 0.000403795
6 *20:10 *39:12 3.06213e-05
7 *20:10 *140:10 0.000172513
8 chany_bottom_out[7] chany_bottom_out[8] 0
9 *19:12 chany_bottom_out[8] 6.58207e-05
*RES
1 *511:X *20:10 47.4768 
2 *20:10 chany_bottom_out[8] 8.58613 
*END

*D_NET *21 0.00335555
*CONN
*P chany_top_in[0] I
*I *485:A I *D sky130_fd_sc_hd__buf_1
*CAP
1 chany_top_in[0] 0.00130403
2 *485:A 0
3 *21:15 0.00130403
4 *21:15 *523:A 0.000142173
5 *21:15 *23:17 0.000202505
6 *21:15 *39:12 0.000402806
*RES
1 chany_top_in[0] *21:15 39.0493 
2 *21:15 *485:A 23 
*END

*D_NET *22 0.00172823
*CONN
*P chany_top_in[1] I
*I *486:A I *D sky130_fd_sc_hd__buf_1
*CAP
1 chany_top_in[1] 0.00078081
2 *486:A 0
3 *22:9 0.00078081
4 *22:9 *40:10 7.27553e-05
5 *22:9 *41:8 0
6 *22:9 *140:10 0
7 *22:9 *157:12 1.32314e-05
8 *22:9 *168:18 2.49911e-05
9 *22:9 *170:22 5.56279e-05
*RES
1 chany_top_in[1] *22:9 30.3493 
2 *22:9 *486:A 23 
*END

*D_NET *23 0.00254925
*CONN
*P chany_top_in[2] I
*I *487:A I *D sky130_fd_sc_hd__buf_1
*CAP
1 chany_top_in[2] 0.000763938
2 *487:A 0
3 *23:17 0.000763938
4 *23:17 *523:A 6.17437e-06
5 *23:17 *39:12 8.02683e-05
6 *23:17 *40:10 0
7 *23:17 *41:8 0
8 *23:17 *138:8 0.000310641
9 *23:17 *171:22 1.79888e-05
10 *20:10 *23:17 0.000403795
11 *21:15 *23:17 0.000202505
*RES
1 chany_top_in[2] *23:17 35.3621 
2 *23:17 *487:A 23 
*END

*D_NET *24 0.00139498
*CONN
*P chany_top_in[3] I
*I *488:A I *D sky130_fd_sc_hd__buf_1
*CAP
1 chany_top_in[3] 0.000598157
2 *488:A 0
3 *24:13 0.000598157
4 *24:13 *464:TE_B 0
5 *24:13 *86:18 2.54046e-05
6 *24:13 *171:14 0.000173261
*RES
1 chany_top_in[3] *24:13 27.47 
2 *24:13 *488:A 23 
*END

*D_NET *25 0.00169664
*CONN
*P chany_top_in[4] I
*I *489:A I *D sky130_fd_sc_hd__buf_1
*CAP
1 chany_top_in[4] 0.000642833
2 *489:A 0
3 *25:21 0.000642833
4 *25:21 *86:10 0
5 *25:21 *131:47 0.000214252
6 *25:21 *142:8 0.000185434
7 *25:21 *142:18 1.12863e-05
8 *25:21 *148:29 0
*RES
1 chany_top_in[4] *25:21 30.8879 
2 *25:21 *489:A 23 
*END

*D_NET *26 0.00109375
*CONN
*P chany_top_in[5] I
*I *490:A I *D sky130_fd_sc_hd__buf_1
*CAP
1 chany_top_in[5] 0.000491864
2 *490:A 0.000491864
3 *490:A *86:10 2.54046e-05
4 *490:A *88:8 0
5 *490:A *131:47 2.93104e-06
6 *490:A *175:10 8.16913e-05
*RES
1 chany_top_in[5] *490:A 48.4193 
*END

*D_NET *27 0.00107855
*CONN
*P chany_top_in[6] I
*I *491:A I *D sky130_fd_sc_hd__clkbuf_1
*CAP
1 chany_top_in[6] 0.00052313
2 *491:A 0.00052313
3 *491:A *88:8 0
4 *491:A *136:12 3.22879e-05
*RES
1 chany_top_in[6] *491:A 48.7093 
*END

*D_NET *28 0.0011799
*CONN
*P chany_top_in[7] I
*I *492:A I *D sky130_fd_sc_hd__clkbuf_1
*CAP
1 chany_top_in[7] 0.000490021
2 *492:A 0.000490021
3 *492:A *136:12 2.07484e-05
4 *492:A *148:37 0.000168358
5 *1:17 *492:A 1.07531e-05
6 *2:10 *492:A 0
*RES
1 chany_top_in[7] *492:A 48.5643 
*END

*D_NET *29 0.00175754
*CONN
*P chany_top_in[8] I
*I *493:A I *D sky130_fd_sc_hd__buf_1
*CAP
1 chany_top_in[8] 0.000878771
2 *493:A 0
3 *29:13 0.000878771
4 *29:13 right_grid_left_width_0_height_0_subtile_0__pin_outpad_0_ 0
5 *2:10 *29:13 0
*RES
1 chany_top_in[8] *29:13 32.0686 
2 *29:13 *493:A 23 
*END

*D_NET *30 0.0012994
*CONN
*P chany_top_out[0] O
*I *512:X O *D sky130_fd_sc_hd__buf_2
*CAP
1 chany_top_out[0] 0.000324109
2 *512:X 0.000150618
3 *30:8 0.000474726
4 chany_top_out[0] chany_top_out[1] 0
5 *11:11 *30:8 0.000349944
*RES
1 *512:X *30:8 42.5468 
2 *30:8 chany_top_out[0] 9.1872 
*END

*D_NET *31 0.000964392
*CONN
*P chany_top_out[1] O
*I *513:X O *D sky130_fd_sc_hd__buf_2
*CAP
1 chany_top_out[1] 0.000188011
2 *513:X 0.000283312
3 *31:12 0.000471323
4 chany_top_out[1] chany_top_out[2] 2.1746e-05
5 chany_top_out[0] chany_top_out[1] 0
6 *11:11 *31:12 0
*RES
1 *513:X *31:12 42.0496 
2 *31:12 chany_top_out[1] 8.6496 
*END

*D_NET *32 0.000948266
*CONN
*P chany_top_out[2] O
*I *514:X O *D sky130_fd_sc_hd__buf_2
*CAP
1 chany_top_out[2] 0.000412955
2 *514:X 0.000412955
3 chany_top_out[2] chany_top_out[3] 0
4 chany_top_out[2] *137:10 8.62876e-05
5 chany_top_out[2] *165:16 1.43225e-05
6 chany_top_out[1] chany_top_out[2] 2.1746e-05
*RES
1 *514:X chany_top_out[2] 48.5734 
*END

*D_NET *33 0.000728866
*CONN
*P chany_top_out[3] O
*I *515:X O *D sky130_fd_sc_hd__buf_2
*CAP
1 chany_top_out[3] 0.000352082
2 *515:X 0.000352082
3 chany_top_out[3] chany_top_out[4] 0
4 chany_top_out[3] *137:10 2.47015e-05
5 chany_top_out[2] chany_top_out[3] 0
*RES
1 *515:X chany_top_out[3] 47.1648 
*END

*D_NET *34 0.000933537
*CONN
*P chany_top_out[4] O
*I *516:X O *D sky130_fd_sc_hd__buf_2
*CAP
1 chany_top_out[4] 0.000401662
2 *516:X 0.000401662
3 chany_top_out[4] chany_top_out[5] 0
4 chany_top_out[4] *137:10 0.000130212
5 chany_top_out[3] chany_top_out[4] 0
*RES
1 *516:X chany_top_out[4] 48.5734 
*END

*D_NET *35 0.000750529
*CONN
*P chany_top_out[5] O
*I *517:X O *D sky130_fd_sc_hd__clkbuf_4
*CAP
1 chany_top_out[5] 0.000344781
2 *517:X 0.000344781
3 chany_top_out[5] chany_top_out[6] 4.7512e-05
4 chany_top_out[5] *137:10 1.34542e-05
5 chany_top_out[4] chany_top_out[5] 0
*RES
1 *517:X chany_top_out[5] 47.3141 
*END

*D_NET *36 0.000740095
*CONN
*P chany_top_out[6] O
*I *518:X O *D sky130_fd_sc_hd__buf_2
*CAP
1 chany_top_out[6] 0.000319722
2 *518:X 0.000319722
3 chany_top_out[6] chany_top_out[7] 0
4 chany_top_out[6] *137:10 5.31385e-05
5 chany_top_out[5] chany_top_out[6] 4.7512e-05
*RES
1 *518:X chany_top_out[6] 47.5169 
*END

*D_NET *37 0.000708743
*CONN
*P chany_top_out[7] O
*I *519:X O *D sky130_fd_sc_hd__buf_2
*CAP
1 chany_top_out[7] 0.000342021
2 *519:X 0.000342021
3 chany_top_out[7] chany_top_out[8] 0
4 chany_top_out[7] *137:10 2.47015e-05
5 chany_top_out[6] chany_top_out[7] 0
*RES
1 *519:X chany_top_out[7] 47.1648 
*END

*D_NET *38 0.000942445
*CONN
*P chany_top_out[8] O
*I *520:X O *D sky130_fd_sc_hd__clkbuf_4
*CAP
1 chany_top_out[8] 0.000457272
2 *520:X 0.000457272
3 chany_top_out[8] right_grid_left_width_0_height_0_subtile_0__pin_outpad_0_ 0
4 chany_top_out[8] *172:12 2.79004e-05
5 chany_top_out[7] chany_top_out[8] 0
*RES
1 *520:X chany_top_out[8] 49.1089 
*END

*D_NET *39 0.00105165
*CONN
*P left_grid_right_width_0_height_0_subtile_0__pin_I_1_ O
*I *521:X O *D sky130_fd_sc_hd__clkbuf_4
*CAP
1 left_grid_right_width_0_height_0_subtile_0__pin_I_1_ 9.74398e-05
2 *521:X 0.000161795
3 *39:12 0.000259235
4 left_grid_right_width_0_height_0_subtile_0__pin_I_1_ left_grid_right_width_0_height_0_subtile_0__pin_I_5_ 0
5 *39:12 *140:10 1.94812e-05
6 chany_bottom_out[8] left_grid_right_width_0_height_0_subtile_0__pin_I_1_ 0
7 *20:10 *39:12 3.06213e-05
8 *21:15 *39:12 0.000402806
9 *23:17 *39:12 8.02683e-05
*RES
1 *521:X *39:12 43.2511 
2 *39:12 left_grid_right_width_0_height_0_subtile_0__pin_I_1_ 8.32853 
*END

*D_NET *40 0.00285976
*CONN
*P left_grid_right_width_0_height_0_subtile_0__pin_I_5_ O
*I *522:X O *D sky130_fd_sc_hd__clkbuf_4
*CAP
1 left_grid_right_width_0_height_0_subtile_0__pin_I_5_ 0.000629232
2 *522:X 0.000497266
3 *40:10 0.0011265
4 left_grid_right_width_0_height_0_subtile_0__pin_I_5_ left_grid_right_width_0_height_0_subtile_0__pin_I_9_ 0
5 left_grid_right_width_0_height_0_subtile_0__pin_I_5_ *168:18 0
6 *40:10 *41:8 0.000339915
7 *40:10 *157:12 3.22879e-05
8 *40:10 *157:18 0.000161807
9 left_grid_right_width_0_height_0_subtile_0__pin_I_1_ left_grid_right_width_0_height_0_subtile_0__pin_I_5_ 0
10 *22:9 *40:10 7.27553e-05
11 *23:17 *40:10 0
*RES
1 *522:X *40:10 47.6632 
2 *40:10 left_grid_right_width_0_height_0_subtile_0__pin_I_5_ 10.0459 
*END

*D_NET *41 0.00227485
*CONN
*P left_grid_right_width_0_height_0_subtile_0__pin_I_9_ O
*I *523:X O *D sky130_fd_sc_hd__clkbuf_4
*CAP
1 left_grid_right_width_0_height_0_subtile_0__pin_I_9_ 0.000602352
2 *523:X 0.000365115
3 *41:8 0.000967467
4 left_grid_right_width_0_height_0_subtile_0__pin_I_5_ left_grid_right_width_0_height_0_subtile_0__pin_I_9_ 0
5 *22:9 *41:8 0
6 *23:17 *41:8 0
7 *40:10 *41:8 0.000339915
*RES
1 *523:X *41:8 46.7725 
2 *41:8 left_grid_right_width_0_height_0_subtile_0__pin_I_9_ 10.1317 
*END

*D_NET *42 0.00781058
*CONN
*P prog_clk I
*I *471:A I *D sky130_fd_sc_hd__clkbuf_16
*CAP
1 prog_clk 0.00199079
2 *471:A 7.78516e-05
3 *42:13 0.00206865
4 *471:A *155:12 0.000139352
5 *42:13 *442:A 0.0002129
6 *42:13 *457:TE_B 6.2155e-05
7 *42:13 *57:22 0.000445328
8 *42:13 *106:10 0.000138727
9 *42:13 *122:27 0.000582848
10 *42:13 *128:12 0.000277705
11 *42:13 *141:26 0.000575326
12 *42:13 *151:12 3.08554e-05
13 *42:13 *152:14 0.000761611
14 *42:13 *169:10 0.000233009
15 *42:13 *169:31 1.47563e-05
16 chany_bottom_out[0] *42:13 0
17 *497:A *42:13 0.000198714
*RES
1 prog_clk *42:13 42.9719 
2 *42:13 *471:A 39.5743 
*END

*D_NET *43 0.000991804
*CONN
*P right_grid_left_width_0_height_0_subtile_0__pin_outpad_0_ O
*I *524:X O *D sky130_fd_sc_hd__buf_2
*CAP
1 right_grid_left_width_0_height_0_subtile_0__pin_outpad_0_ 0.000464233
2 *524:X 0.000464233
3 right_grid_left_width_0_height_0_subtile_0__pin_outpad_0_ *172:12 1.34542e-05
4 chany_top_out[8] right_grid_left_width_0_height_0_subtile_0__pin_outpad_0_ 0
5 *1:17 right_grid_left_width_0_height_0_subtile_0__pin_outpad_0_ 4.98839e-05
6 *29:13 right_grid_left_width_0_height_0_subtile_0__pin_outpad_0_ 0
*RES
1 *524:X right_grid_left_width_0_height_0_subtile_0__pin_outpad_0_ 48.1043 
*END

*D_NET *46 0.00181286
*CONN
*I *363:A I *D sky130_fd_sc_hd__clkbuf_1
*I *362:X O *D sky130_fd_sc_hd__clkbuf_1
*CAP
1 *363:A 0
2 *362:X 0.000525956
3 *46:12 0.000525956
4 *46:12 *457:TE_B 2.39018e-05
5 *46:12 *79:20 0
6 *46:12 *122:10 0.000139865
7 *46:12 *151:20 0.000531571
8 *46:12 *152:14 1.21484e-05
9 *46:12 *169:31 5.34638e-05
*RES
1 *362:X *46:12 49.0821 
2 *46:12 *363:A 38 
*END

*D_NET *47 0.000914217
*CONN
*I *367:A I *D sky130_fd_sc_hd__clkbuf_1
*I *366:X O *D sky130_fd_sc_hd__clkbuf_1
*CAP
1 *367:A 0
2 *366:X 0.000342317
3 *47:10 0.000342317
4 *47:10 *366:A 0.00018016
5 *47:10 *100:14 4.94227e-05
*RES
1 *366:X *47:10 28.9036 
2 *47:10 *367:A 23 
*END

*D_NET *48 0.00120839
*CONN
*I *369:A I *D sky130_fd_sc_hd__clkbuf_1
*I *368:X O *D sky130_fd_sc_hd__clkbuf_1
*CAP
1 *369:A 0.000111601
2 *368:X 0.000312137
3 *48:10 0.000423738
4 *369:A *183:10 0.000103405
5 *48:10 *451:Z 0
6 *48:10 *454:Z 0.000102389
7 *48:10 *457:TE_B 0.000155123
8 *48:10 *101:53 0
*RES
1 *368:X *48:10 43.8207 
2 *48:10 *369:A 40.0507 
*END

*D_NET *49 0.00146857
*CONN
*I *374:A I *D sky130_fd_sc_hd__clkbuf_1
*I *373:X O *D sky130_fd_sc_hd__clkbuf_1
*CAP
1 *374:A 0.000188574
2 *373:X 0.000274012
3 *49:8 0.000462586
4 *374:A *375:A 3.91386e-05
5 *374:A *430:A 8.56938e-05
6 *374:A *67:10 7.40718e-05
7 *374:A *163:10 0.000274917
8 *49:8 *115:19 0
9 *49:8 *190:12 6.95768e-05
*RES
1 *373:X *49:8 42.7229 
2 *49:8 *374:A 43.8829 
*END

*D_NET *50 0.000343366
*CONN
*I *377:A I *D sky130_fd_sc_hd__clkbuf_1
*I *376:X O *D sky130_fd_sc_hd__clkbuf_1
*CAP
1 *377:A 9.55321e-05
2 *376:X 9.55321e-05
3 *377:A *376:A 5.47983e-06
4 *377:A *97:46 0.000146822
5 *377:A *97:58 0
*RES
1 *376:X *377:A 48.4236 
*END

*D_NET *51 0.000798719
*CONN
*I *379:A I *D sky130_fd_sc_hd__clkbuf_1
*I *378:X O *D sky130_fd_sc_hd__clkbuf_1
*CAP
1 *379:A 0.000173478
2 *378:X 4.95605e-05
3 *51:8 0.000223038
4 *379:A *445:TE_B 3.85196e-05
5 *379:A *64:10 5.56279e-05
6 *379:A *164:6 1.70367e-05
7 *379:A *166:14 7.39579e-05
8 *379:A *190:12 5.79559e-05
9 *51:8 *64:10 2.23884e-05
10 *51:8 *71:10 8.71559e-05
*RES
1 *378:X *51:8 39.2014 
2 *51:8 *379:A 41.9979 
*END

*D_NET *52 0.00021134
*CONN
*I *383:A I *D sky130_fd_sc_hd__clkbuf_1
*I *382:X O *D sky130_fd_sc_hd__clkbuf_1
*CAP
1 *383:A 7.60649e-05
2 *382:X 7.60649e-05
3 *383:A *97:34 5.92108e-05
*RES
1 *382:X *383:A 47.4707 
*END

*D_NET *53 0.000167799
*CONN
*I *385:A I *D sky130_fd_sc_hd__clkbuf_1
*I *384:X O *D sky130_fd_sc_hd__clkbuf_1
*CAP
1 *385:A 4.9379e-05
2 *384:X 4.9379e-05
3 *385:A *97:46 1.4345e-05
4 *385:A *97:58 1.14154e-05
5 *385:A *153:18 4.32809e-05
*RES
1 *384:X *385:A 47.4707 
*END

*D_NET *54 0.000606
*CONN
*I *387:A I *D sky130_fd_sc_hd__clkbuf_1
*I *386:X O *D sky130_fd_sc_hd__clkbuf_1
*CAP
1 *387:A 0
2 *386:X 0.000119692
3 *54:12 0.000119692
4 *54:12 *62:10 0.000166176
5 *54:12 *96:27 6.00355e-05
6 *54:12 *98:8 9.79109e-06
7 *54:12 *98:19 0.000130613
*RES
1 *386:X *54:12 27.1429 
2 *54:12 *387:A 23 
*END

*D_NET *55 0.000864335
*CONN
*I *343:A I *D sky130_fd_sc_hd__clkbuf_1
*I *342:X O *D sky130_fd_sc_hd__clkbuf_1
*CAP
1 *343:A 3.39371e-05
2 *342:X 0.000220746
3 *55:10 0.000254683
4 *343:A *131:16 1.32314e-05
5 *343:A *131:47 6.02619e-05
6 *343:A *157:12 3.22465e-05
7 *55:10 *342:A 0
8 *55:10 *131:16 1.97789e-05
9 *55:10 *171:14 8.62876e-05
10 *55:10 *175:10 0.000143163
*RES
1 *342:X *55:10 41.48 
2 *55:10 *343:A 39.1186 
*END

*D_NET *56 0.000920343
*CONN
*I *345:A I *D sky130_fd_sc_hd__clkbuf_1
*I *344:X O *D sky130_fd_sc_hd__clkbuf_1
*CAP
1 *345:A 0
2 *344:X 0.000254747
3 *56:8 0.000254747
4 *56:8 *86:10 0
5 *56:8 *90:8 5.83599e-05
6 *56:8 *142:18 0.000352488
*RES
1 *344:X *56:8 43.075 
2 *56:8 *345:A 38 
*END

*D_NET *57 0.00511449
*CONN
*I *349:A I *D sky130_fd_sc_hd__clkbuf_1
*I *348:X O *D sky130_fd_sc_hd__clkbuf_1
*CAP
1 *349:A 7.32128e-05
2 *348:X 0.000522558
3 *57:22 0.000833585
4 *57:10 0.00128293
5 *349:A *130:25 5.37068e-05
6 *57:10 *454:Z 5.3304e-05
7 *57:10 *101:53 0.000218952
8 *57:10 *153:18 0.000229598
9 *57:22 *457:TE_B 0.000346225
10 *57:22 *75:10 0.000408173
11 *57:22 *107:25 0.000193495