*SPEF "ieee 1481-1999"
*DESIGN "cby_0__1_"
*DATE "11:11:11 Fri 11 11, 1111"
*VENDOR "OpenRCX"
*PROGRAM "Parallel Extraction"
*VERSION "1.0"
*DESIGN_FLOW "NAME_SCOPE LOCAL" "PIN_CAP NONE"
*DIVIDER /
*DELIMITER :
*BUS_DELIMITER []
*T_UNIT 1 NS
*C_UNIT 1 PF
*R_UNIT 1 OHM
*L_UNIT 1 HENRY

*NAME_MAP
*1 ccff_head
*2 ccff_tail
*3 chany_bottom_in[0]
*4 chany_bottom_in[1]
*5 chany_bottom_in[2]
*6 chany_bottom_in[3]
*7 chany_bottom_in[4]
*8 chany_bottom_in[5]
*9 chany_bottom_in[6]
*10 chany_bottom_in[7]
*11 chany_bottom_in[8]
*12 chany_bottom_out[0]
*13 chany_bottom_out[1]
*14 chany_bottom_out[2]
*15 chany_bottom_out[3]
*16 chany_bottom_out[4]
*17 chany_bottom_out[5]
*18 chany_bottom_out[6]
*19 chany_bottom_out[7]
*20 chany_bottom_out[8]
*21 chany_top_in[0]
*22 chany_top_in[1]
*23 chany_top_in[2]
*24 chany_top_in[3]
*25 chany_top_in[4]
*26 chany_top_in[5]
*27 chany_top_in[6]
*28 chany_top_in[7]
*29 chany_top_in[8]
*30 chany_top_out[0]
*31 chany_top_out[1]
*32 chany_top_out[2]
*33 chany_top_out[3]
*34 chany_top_out[4]
*35 chany_top_out[5]
*36 chany_top_out[6]
*37 chany_top_out[7]
*38 chany_top_out[8]
*39 left_grid_right_width_0_height_0_subtile_0__pin_outpad_0_
*40 prog_clk
*41 right_grid_left_width_0_height_0_subtile_0__pin_I_3_
*42 right_grid_left_width_0_height_0_subtile_0__pin_I_7_
*45 _000_
*46 _001_
*47 _002_
*48 _003_
*49 _004_
*50 _005_
*51 _006_
*52 _007_
*53 _008_
*54 _009_
*55 _010_
*56 _011_
*57 _012_
*58 _013_
*59 _014_
*60 _015_
*61 _016_
*62 _017_
*63 _018_
*64 _019_
*65 _020_
*66 _021_
*67 _022_
*68 _023_
*69 _024_
*70 _025_
*71 _026_
*72 _027_
*73 _028_
*74 _029_
*75 _030_
*76 _031_
*77 _032_
*78 _033_
*79 _034_
*80 _035_
*81 _036_
*82 _037_
*83 _038_
*84 _039_
*85 _040_
*86 _041_
*87 clknet_0_prog_clk
*88 clknet_1_0__leaf_prog_clk
*89 clknet_1_1__leaf_prog_clk
*90 mem_left_ipin_0\.DFF_0_\.Q
*91 mem_left_ipin_0\.DFF_1_\.Q
*92 mem_left_ipin_0\.DFF_2_\.Q
*93 mem_left_ipin_1\.DFF_0_\.Q
*94 mem_left_ipin_1\.DFF_1_\.Q
*95 mem_right_ipin_0\.DFF_0_\.Q
*96 mem_right_ipin_0\.DFF_1_\.Q
*97 mux_left_ipin_0\.INVTX1_0_\.out
*98 mux_left_ipin_0\.INVTX1_1_\.out
*99 mux_left_ipin_0\.INVTX1_2_\.out
*100 mux_left_ipin_0\.INVTX1_3_\.out
*101 mux_left_ipin_0\.INVTX1_4_\.out
*102 mux_left_ipin_0\.INVTX1_5_\.out
*103 mux_left_ipin_0\.mux_l1_in_0_\.TGATE_0_\.out
*104 mux_left_ipin_0\.mux_l1_in_1_\.TGATE_0_\.out
*105 mux_left_ipin_0\.mux_l1_in_2_\.TGATE_0_\.out
*106 mux_left_ipin_0\.mux_l2_in_0_\.TGATE_0_\.out
*107 mux_left_ipin_0\.mux_l2_in_1_\.TGATE_0_\.out
*108 mux_left_ipin_0\.mux_l3_in_0_\.TGATE_0_\.out
*109 mux_left_ipin_1\.INVTX1_0_\.out
*110 mux_left_ipin_1\.INVTX1_1_\.out
*111 mux_left_ipin_1\.mux_l1_in_0_\.TGATE_0_\.out
*112 mux_left_ipin_1\.mux_l2_in_0_\.TGATE_0_\.out
*113 mux_right_ipin_0\.INVTX1_2_\.out
*114 mux_right_ipin_0\.INVTX1_3_\.out
*115 mux_right_ipin_0\.INVTX1_4_\.out
*116 mux_right_ipin_0\.INVTX1_5_\.out
*117 mux_right_ipin_0\.mux_l1_in_0_\.TGATE_0_\.out
*118 mux_right_ipin_0\.mux_l1_in_1_\.TGATE_0_\.out
*119 mux_right_ipin_0\.mux_l1_in_2_\.TGATE_0_\.out
*120 mux_right_ipin_0\.mux_l2_in_0_\.TGATE_0_\.out
*121 mux_right_ipin_0\.mux_l2_in_1_\.TGATE_0_\.out
*122 mux_right_ipin_0\.mux_l3_in_0_\.TGATE_0_\.out
*123 net1
*124 net10
*125 net11
*126 net12
*127 net13
*128 net14
*129 net15
*130 net16
*131 net17
*132 net18
*133 net19
*134 net2
*135 net20
*136 net21
*137 net22
*138 net23
*139 net24
*140 net25
*141 net26
*142 net27
*143 net28
*144 net29
*145 net3
*146 net30
*147 net31
*148 net32
*149 net33
*150 net34
*151 net35
*152 net36
*153 net37
*154 net38
*155 net39
*156 net4
*157 net40
*158 net41
*159 net42
*160 net43
*161 net44
*162 net45
*163 net46
*164 net47
*165 net48
*166 net49
*167 net5
*168 net50
*169 net51
*170 net6
*171 net7
*172 net8
*173 net9
*174 FILLER_0_0_11
*175 FILLER_0_0_19
*176 FILLER_0_0_24
*177 FILLER_0_0_29
*178 FILLER_0_0_33
*179 FILLER_0_0_37
*180 FILLER_0_0_45
*181 FILLER_0_0_50
*182 FILLER_0_0_57
*183 FILLER_0_0_6
*184 FILLER_0_0_63
*185 FILLER_0_0_71
*186 FILLER_0_0_76
*187 FILLER_0_0_85
*188 FILLER_0_0_89
*189 FILLER_0_10_11
*190 FILLER_0_10_23
*191 FILLER_0_10_3
*192 FILLER_0_10_62
*193 FILLER_0_10_7
*194 FILLER_0_10_71
*195 FILLER_0_10_83
*196 FILLER_0_10_93
*197 FILLER_0_11_12
*198 FILLER_0_11_24
*199 FILLER_0_11_39
*200 FILLER_0_11_54
*201 FILLER_0_11_57
*202 FILLER_0_11_63
*203 FILLER_0_11_87
*204 FILLER_0_11_93
*205 FILLER_0_12_20
*206 FILLER_0_12_24
*207 FILLER_0_12_40
*208 FILLER_0_12_52
*209 FILLER_0_12_64
*210 FILLER_0_12_76
*211 FILLER_0_12_85
*212 FILLER_0_12_9
*213 FILLER_0_13_101
*214 FILLER_0_13_23
*215 FILLER_0_13_29
*216 FILLER_0_13_3
*217 FILLER_0_13_37
*218 FILLER_0_13_42
*219 FILLER_0_13_50
*220 FILLER_0_13_57
*221 FILLER_0_13_65
*222 FILLER_0_13_70
*223 FILLER_0_13_78
*224 FILLER_0_13_85
*225 FILLER_0_13_91
*226 FILLER_0_1_15
*227 FILLER_0_1_23
*228 FILLER_0_1_29
*229 FILLER_0_1_3
*230 FILLER_0_1_36
*231 FILLER_0_1_48
*232 FILLER_0_1_57
*233 FILLER_0_1_69
*234 FILLER_0_1_81
*235 FILLER_0_1_89
*236 FILLER_0_1_95
*237 FILLER_0_2_16
*238 FILLER_0_2_29
*239 FILLER_0_2_41
*240 FILLER_0_2_53
*241 FILLER_0_2_65
*242 FILLER_0_2_72
*243 FILLER_0_2_85
*244 FILLER_0_2_9
*245 FILLER_0_2_93
*246 FILLER_0_2_98
*247 FILLER_0_3_102
*248 FILLER_0_3_18
*249 FILLER_0_3_30
*250 FILLER_0_3_39
*251 FILLER_0_3_51
*252 FILLER_0_3_55
*253 FILLER_0_3_57
*254 FILLER_0_3_76
*255 FILLER_0_3_88
*256 FILLER_0_4_12
*257 FILLER_0_4_16
*258 FILLER_0_4_23
*259 FILLER_0_4_48
*260 FILLER_0_4_82
*261 FILLER_0_4_97
*262 FILLER_0_5_57
*263 FILLER_0_5_6
*264 FILLER_0_5_61
*265 FILLER_0_5_94
*266 FILLER_0_6_27
*267 FILLER_0_6_65
*268 FILLER_0_6_83
*269 FILLER_0_6_97
*270 FILLER_0_7_3
*271 FILLER_0_7_57
*272 FILLER_0_7_98
*273 FILLER_0_8_102
*274 FILLER_0_8_29
*275 FILLER_0_8_62
*276 FILLER_0_8_67
*277 FILLER_0_8_74
*278 FILLER_0_8_85
*279 FILLER_0_9_102
*280 FILLER_0_9_14
*281 FILLER_0_9_42
*282 FILLER_0_9_55
*283 FILLER_0_9_60
*284 FILLER_0_9_9
*285 PHY_0
*286 PHY_1
*287 PHY_10
*288 PHY_11
*289 PHY_12
*290 PHY_13
*291 PHY_14
*292 PHY_15
*293 PHY_16
*294 PHY_17
*295 PHY_18
*296 PHY_19
*297 PHY_2
*298 PHY_20
*299 PHY_21
*300 PHY_22
*301 PHY_23
*302 PHY_24
*303 PHY_25
*304 PHY_26
*305 PHY_27
*306 PHY_3
*307 PHY_4
*308 PHY_5
*309 PHY_6
*310 PHY_7
*311 PHY_8
*312 PHY_9
*313 TAP_28
*314 TAP_29
*315 TAP_30
*316 TAP_31
*317 TAP_32
*318 TAP_33
*319 TAP_34
*320 TAP_35
*321 TAP_36
*322 TAP_37
*323 TAP_38
*324 TAP_39
*325 TAP_40
*326 TAP_41
*327 TAP_42
*328 TAP_43
*329 TAP_44
*330 TAP_45
*331 TAP_46
*332 TAP_47
*333 TAP_48
*334 TAP_49
*335 TAP_50
*336 TAP_51
*337 _045_
*338 _046_
*339 _047_
*340 _048_
*341 _049_
*342 _050_
*343 _051_
*344 _052_
*345 _053_
*346 _054_
*347 _055_
*348 _056_
*349 _057_
*350 _058_
*351 _059_
*352 _060_
*353 _061_
*354 _062_
*355 _063_
*356 _064_
*357 _065_
*358 _066_
*359 _067_
*360 _068_
*361 _069_
*362 _070_
*363 _071_
*364 _072_
*365 _073_
*366 _074_
*367 _075_
*368 _076_
*369 _077_
*370 _078_
*371 _079_
*372 _080_
*373 _081_
*374 _082_
*375 _083_
*376 _084_
*377 _085_
*378 _086_
*379 _087_
*380 _088_
*381 _089_
*382 _090_
*383 _091_
*384 _092_
*385 _093_
*386 _094_
*387 _095_
*388 _096_
*389 _097_
*390 _098_
*391 _099_
*392 _100_
*393 _101_
*394 _102_
*395 _103_
*396 _104_
*397 _105_
*398 _106_
*399 _107_
*400 _108_
*401 _109_
*402 _113_
*403 _114_
*404 _115_
*405 _116_
*406 _117_
*407 _118_
*408 _119_
*409 _120_
*410 _121_
*411 _122_
*412 _123_
*413 _124_
*414 _125_
*415 _126_
*416 _127_
*417 _128_
*418 _129_
*419 _130_
*420 _131_
*421 _131__42
*422 _132_
*423 _133_
*424 _134_
*425 _135_
*426 _136_
*427 _137_
*428 _138_
*429 _139_
*430 _140_
*431 _141_
*432 _142_
*433 _143_
*434 _144_
*435 _144__43
*436 _145_
*437 _146_
*438 _147_
*439 _148_
*440 _149_
*441 _150_
*442 _151_
*443 _152_
*444 _153_
*445 _154_
*446 _155_
*447 _155__44
*448 _156_
*449 _157_
*450 _158_
*451 clkbuf_0_prog_clk
*452 clkbuf_1_0__f_prog_clk
*453 clkbuf_1_1__f_prog_clk
*454 hold1
*455 hold2
*456 hold3
*457 hold4
*458 hold5
*459 hold6
*460 hold7
*461 input1
*462 input10
*463 input11
*464 input12
*465 input13
*466 input14
*467 input15
*468 input16
*469 input17
*470 input18
*471 input19
*472 input2
*473 input3
*474 input4
*475 input5
*476 input6
*477 input7
*478 input8
*479 input9
*480 output20
*481 output21
*482 output22
*483 output23
*484 output24
*485 output25
*486 output26
*487 output27
*488 output28
*489 output29
*490 output30
*491 output31
*492 output32
*493 output33
*494 output34
*495 output35
*496 output36
*497 output37
*498 output38
*499 output39
*500 output40
*501 output41

*PORTS
ccff_head I
ccff_tail O
chany_bottom_in[0] I
chany_bottom_in[1] I
chany_bottom_in[2] I
chany_bottom_in[3] I
chany_bottom_in[4] I
chany_bottom_in[5] I
chany_bottom_in[6] I
chany_bottom_in[7] I
chany_bottom_in[8] I
chany_bottom_out[0] O
chany_bottom_out[1] O
chany_bottom_out[2] O
chany_bottom_out[3] O
chany_bottom_out[4] O
chany_bottom_out[5] O
chany_bottom_out[6] O
chany_bottom_out[7] O
chany_bottom_out[8] O
chany_top_in[0] I
chany_top_in[1] I
chany_top_in[2] I
chany_top_in[3] I
chany_top_in[4] I
chany_top_in[5] I
chany_top_in[6] I
chany_top_in[7] I
chany_top_in[8] I
chany_top_out[0] O
chany_top_out[1] O
chany_top_out[2] O
chany_top_out[3] O
chany_top_out[4] O
chany_top_out[5] O
chany_top_out[6] O
chany_top_out[7] O
chany_top_out[8] O
left_grid_right_width_0_height_0_subtile_0__pin_outpad_0_ O
prog_clk I
right_grid_left_width_0_height_0_subtile_0__pin_I_3_ O
right_grid_left_width_0_height_0_subtile_0__pin_I_7_ O

*D_NET *1 0.00193642
*CONN
*P ccff_head I
*I *461:A I *D sky130_fd_sc_hd__clkbuf_1
*CAP
1 ccff_head 0.000791381
2 *461:A 0
3 *1:25 0.000791381
4 *1:25 ccff_tail 0
5 *1:25 right_grid_left_width_0_height_0_subtile_0__pin_I_7_ 9.84835e-05
6 *1:25 *29:11 0.000197851
7 *1:25 *133:12 5.73288e-05
8 *1:25 *158:10 0
*RES
1 ccff_head *1:25 32.8517 
2 *1:25 *461:A 23 
*END

*D_NET *2 0.001282
*CONN
*P ccff_tail O
*I *480:X O *D sky130_fd_sc_hd__clkbuf_4
*CAP
1 ccff_tail 0.000333678
2 *480:X 0.000307324
3 *2:10 0.000641002
4 *2:10 *470:A 0
5 *2:10 *29:11 0
6 *1:25 ccff_tail 0
*RES
1 *480:X *2:10 43.8725 
2 *2:10 ccff_tail 8.9296 
*END

*D_NET *3 0.00123767
*CONN
*P chany_bottom_in[0] I
*I *472:A I *D sky130_fd_sc_hd__buf_1
*CAP
1 chany_bottom_in[0] 0.000618833
2 *472:A 0
3 *3:9 0.000618833
*RES
1 chany_bottom_in[0] *3:9 28.1329 
2 *3:9 *472:A 23 
*END

*D_NET *4 0.000913092
*CONN
*P chany_bottom_in[1] I
*I *473:A I *D sky130_fd_sc_hd__buf_1
*CAP
1 chany_bottom_in[1] 0.000456546
2 *473:A 0.000456546
*RES
1 chany_bottom_in[1] *473:A 47.4664 
*END

*D_NET *5 0.000896907
*CONN
*P chany_bottom_in[2] I
*I *474:A I *D sky130_fd_sc_hd__buf_1
*CAP
1 chany_bottom_in[2] 0.000448454
2 *474:A 0.000448454
*RES
1 chany_bottom_in[2] *474:A 47.4664 
*END

*D_NET *6 0.0010732
*CONN
*P chany_bottom_in[3] I
*I *475:A I *D sky130_fd_sc_hd__clkbuf_1
*CAP
1 chany_bottom_in[3] 0.000491648
2 *475:A 0.000491648
3 *475:A *40:15 2.24608e-05
4 *475:A *134:12 5.50049e-05
5 *475:A *147:16 1.24376e-05
*RES
1 chany_bottom_in[3] *475:A 48.5643 
*END

*D_NET *7 0.00087874
*CONN
*P chany_bottom_in[4] I
*I *476:A I *D sky130_fd_sc_hd__buf_1
*CAP
1 chany_bottom_in[4] 0.00043937
2 *476:A 0.00043937
*RES
1 chany_bottom_in[4] *476:A 47.4664 
*END

*D_NET *8 0.000880257
*CONN
*P chany_bottom_in[5] I
*I *477:A I *D sky130_fd_sc_hd__clkbuf_1
*CAP
1 chany_bottom_in[5] 0.000434139
2 *477:A 0.000434139
3 *477:A *134:12 1.19796e-05
*RES
1 chany_bottom_in[5] *477:A 47.4664 
*END

*D_NET *9 0.000865686
*CONN
*P chany_bottom_in[6] I
*I *478:A I *D sky130_fd_sc_hd__buf_1
*CAP
1 chany_bottom_in[6] 0.000432843
2 *478:A 0.000432843
3 *478:A *134:12 0
*RES
1 chany_bottom_in[6] *478:A 47.4664 
*END

*D_NET *10 0.000857009
*CONN
*P chany_bottom_in[7] I
*I *479:A I *D sky130_fd_sc_hd__clkbuf_1
*CAP
1 chany_bottom_in[7] 0.000428504
2 *479:A 0.000428504
3 *479:A *31:10 0
*RES
1 chany_bottom_in[7] *479:A 47.3214 
*END

*D_NET *11 0.00145992
*CONN
*P chany_bottom_in[8] I
*I *462:A I *D sky130_fd_sc_hd__buf_1
*CAP
1 chany_bottom_in[8] 0.000586051
2 *462:A 0
3 *11:15 0.000586051
4 *11:15 *490:A 5.50049e-05
5 *11:15 *30:10 0
6 *11:15 *31:10 0.000117932
7 *11:15 *124:8 3.00533e-05
8 *11:15 *147:16 8.48249e-05
*RES
1 chany_bottom_in[8] *11:15 28.0914 
2 *11:15 *462:A 23 
*END

*D_NET *12 0.000689591
*CONN
*P chany_bottom_out[0] O
*I *481:X O *D sky130_fd_sc_hd__clkbuf_4
*CAP
1 chany_bottom_out[0] 9.15931e-05
2 *481:X 0.000253202
3 *12:10 0.000344795
4 chany_bottom_out[0] chany_bottom_out[1] 0
5 chany_bottom_out[0] *40:15 0
6 *12:10 *13:12 0
*RES
1 *481:X *12:10 42.6089 
2 *12:10 chany_bottom_out[0] 8.32853 
*END

*D_NET *13 0.000756406
*CONN
*P chany_bottom_out[1] O
*I *482:X O *D sky130_fd_sc_hd__clkbuf_4
*CAP
1 chany_bottom_out[1] 9.75781e-05
2 *482:X 0.000261907
3 *13:12 0.000359485
4 chany_bottom_out[1] chany_bottom_out[2] 0
5 *13:12 *482:A 5.14746e-06
6 *13:12 *110:8 3.22879e-05
7 chany_bottom_out[0] chany_bottom_out[1] 0
8 *12:10 *13:12 0
*RES
1 *482:X *13:12 49.8011 
2 *13:12 chany_bottom_out[1] 0.328533 
*END

*D_NET *14 0.0012037
*CONN
*P chany_bottom_out[2] O
*I *483:X O *D sky130_fd_sc_hd__clkbuf_4
*CAP
1 chany_bottom_out[2] 9.15931e-05
2 *483:X 0.000408877
3 *14:12 0.00050047
4 chany_bottom_out[2] chany_bottom_out[3] 0
5 *14:12 *409:A 3.23684e-05
6 *14:12 *15:10 0.000150107
7 *14:12 *126:32 2.02872e-05
8 *14:12 *137:8 0
9 chany_bottom_out[1] chany_bottom_out[2] 0
*RES
1 *483:X *14:12 45.3639 
2 *14:12 chany_bottom_out[2] 8.32853 
*END

*D_NET *15 0.00112387
*CONN
*P chany_bottom_out[3] O
*I *484:X O *D sky130_fd_sc_hd__clkbuf_4
*CAP
1 chany_bottom_out[3] 0.000119953
2 *484:X 0.00036693
3 *15:10 0.000486883
4 chany_bottom_out[3] chany_bottom_out[4] 0
5 *15:10 *110:14 0
6 *15:10 *137:8 0
7 chany_bottom_out[2] chany_bottom_out[3] 0
8 *14:12 *15:10 0.000150107
*RES
1 *484:X *15:10 44.3696 
2 *15:10 chany_bottom_out[3] 8.4144 
*END

*D_NET *16 0.000677621
*CONN
*P chany_bottom_out[4] O
*I *485:X O *D sky130_fd_sc_hd__clkbuf_4
*CAP
1 chany_bottom_out[4] 8.56082e-05
2 *485:X 0.000253202
3 *16:10 0.00033881
4 chany_bottom_out[4] chany_bottom_out[5] 0
5 *16:10 chany_bottom_out[5] 0
6 *16:10 *344:A 0
7 chany_bottom_out[3] chany_bottom_out[4] 0
*RES
1 *485:X *16:10 42.6089 
2 *16:10 chany_bottom_out[4] 8.32853 
*END

*D_NET *17 0.000647927
*CONN
*P chany_bottom_out[5] O
*I *486:X O *D sky130_fd_sc_hd__clkbuf_4
*CAP
1 chany_bottom_out[5] 0.000323963
2 *486:X 0.000323963
3 chany_bottom_out[5] chany_bottom_out[6] 0
4 chany_bottom_out[4] chany_bottom_out[5] 0
5 *16:10 chany_bottom_out[5] 0
*RES
1 *486:X chany_bottom_out[5] 49.6532 
*END

*D_NET *18 0.000732559
*CONN
*P chany_bottom_out[6] O
*I *487:X O *D sky130_fd_sc_hd__clkbuf_4
*CAP
1 chany_bottom_out[6] 0.000351375
2 *487:X 0.000351375
3 chany_bottom_out[6] chany_bottom_out[7] 2.98092e-05
4 chany_bottom_out[6] chany_bottom_out[8] 0
5 chany_bottom_out[6] *139:10 0
6 chany_bottom_out[5] chany_bottom_out[6] 0
*RES
1 *487:X chany_bottom_out[6] 47.8828 
*END

*D_NET *19 0.000571161
*CONN
*P chany_bottom_out[7] O
*I *488:X O *D sky130_fd_sc_hd__clkbuf_4
*CAP
1 chany_bottom_out[7] 0.000270676
2 *488:X 0.000270676
3 chany_bottom_out[7] chany_bottom_out[8] 0
4 chany_bottom_out[7] *21:15 0
5 chany_bottom_out[7] *126:14 0
6 chany_bottom_out[6] chany_bottom_out[7] 2.98092e-05
*RES
1 *488:X chany_bottom_out[7] 49.5289 
*END

*D_NET *20 0.00172914
*CONN
*P chany_bottom_out[8] O
*I *489:X O *D sky130_fd_sc_hd__clkbuf_4
*CAP
1 chany_bottom_out[8] 0.000173934
2 *489:X 0.000480449
3 *20:10 0.000654384
4 chany_bottom_out[8] left_grid_right_width_0_height_0_subtile_0__pin_outpad_0_ 2.64128e-05
5 *20:10 *21:15 0.000168821
6 *20:10 *126:14 0.000225135
7 *20:10 *155:16 0
8 chany_bottom_out[6] chany_bottom_out[8] 0
9 chany_bottom_out[7] chany_bottom_out[8] 0
*RES
1 *489:X *20:10 45.2396 
2 *20:10 chany_bottom_out[8] 8.58613 
*END

*D_NET *21 0.00261934
*CONN
*P chany_top_in[0] I
*I *463:A I *D sky130_fd_sc_hd__buf_1
*CAP
1 chany_top_in[0] 0.000853549
2 *463:A 0
3 *21:15 0.000853549
4 *21:15 *489:A 0.000100069
5 *21:15 *22:13 0.000202666
6 *21:15 *39:10 0
7 *21:15 *126:14 0.000285939
8 *21:15 *127:8 0.000154751
9 chany_bottom_out[7] *21:15 0
10 *20:10 *21:15 0.000168821
*RES
1 chany_top_in[0] *21:15 35.9421 
2 *21:15 *463:A 23 
*END

*D_NET *22 0.00176742
*CONN
*P chany_top_in[1] I
*I *464:A I *D sky130_fd_sc_hd__buf_1
*CAP
1 chany_top_in[1] 0.000686291
2 *464:A 0
3 *22:13 0.000686291
4 *22:13 *465:A 3.91386e-05
5 *22:13 *489:A 0.000100069
6 *22:13 *39:10 0
7 *22:13 *127:8 5.29672e-05
8 *21:15 *22:13 0.000202666
*RES
1 chany_top_in[1] *22:13 29.8521 
2 *22:13 *464:A 23 
*END

*D_NET *23 0.00115432
*CONN
*P chany_top_in[2] I
*I *465:A I *D sky130_fd_sc_hd__buf_1
*CAP
1 chany_top_in[2] 0.000529121
2 *465:A 0.000529121
3 *465:A *125:8 0
4 *465:A *127:8 5.69371e-05
5 *22:13 *465:A 3.91386e-05
*RES
1 chany_top_in[2] *465:A 49.6621 
*END

*D_NET *24 0.00104318
*CONN
*P chany_top_in[3] I
*I *466:A I *D sky130_fd_sc_hd__clkbuf_1
*CAP
1 chany_top_in[3] 0.000511976
2 *466:A 0.000511976
3 *466:A *128:10 1.92253e-05
*RES
1 chany_top_in[3] *466:A 48.4193 
*END

*D_NET *25 0.00122732
*CONN
*P chany_top_in[4] I
*I *467:A I *D sky130_fd_sc_hd__buf_1
*CAP
1 chany_top_in[4] 0.000541408
2 *467:A 0.000541408
3 *467:A *135:38 0.000144501
*RES
1 chany_top_in[4] *467:A 49.6621 
*END

*D_NET *26 0.00109283
*CONN
*P chany_top_in[5] I
*I *468:A I *D sky130_fd_sc_hd__clkbuf_1
*CAP
1 chany_top_in[5] 0.000473795
2 *468:A 0.000473795
3 *468:A *135:38 0.000145236
*RES
1 chany_top_in[5] *468:A 48.4193 
*END

*D_NET *27 0.00105328
*CONN
*P chany_top_in[6] I
*I *469:A I *D sky130_fd_sc_hd__buf_1
*CAP
1 chany_top_in[6] 0.000498289
2 *469:A 0.000498289
3 *469:A *135:38 5.67058e-05
*RES
1 chany_top_in[6] *469:A 48.7093 
*END

*D_NET *28 0.000841345
*CONN
*P chany_top_in[7] I
*I *470:A I *D sky130_fd_sc_hd__clkbuf_1
*CAP
1 chany_top_in[7] 0.000417932
2 *470:A 0.000417932
3 *470:A *135:38 5.47983e-06
4 *2:10 *470:A 0
*RES
1 chany_top_in[7] *470:A 46.845 
*END

*D_NET *29 0.00201048
*CONN
*P chany_top_in[8] I
*I *471:A I *D sky130_fd_sc_hd__buf_1
*CAP
1 chany_top_in[8] 0.000906314
2 *471:A 0
3 *29:11 0.000906314
4 *29:11 *158:10 0
5 *1:25 *29:11 0.000197851
6 *2:10 *29:11 0
*RES
1 chany_top_in[8] *29:11 32.6279 
2 *29:11 *471:A 23 
*END

*D_NET *30 0.00122631
*CONN
*P chany_top_out[0] O
*I *490:X O *D sky130_fd_sc_hd__clkbuf_4
*CAP
1 chany_top_out[0] 0.000197482
2 *490:X 0.000415671
3 *30:10 0.000613153
4 chany_top_out[0] chany_top_out[1] 0
5 *11:15 *30:10 0
*RES
1 *490:X *30:10 45.9854 
2 *30:10 chany_top_out[0] 8.75787 
*END

*D_NET *31 0.00115951
*CONN
*P chany_top_out[1] O
*I *491:X O *D sky130_fd_sc_hd__buf_2
*CAP
1 chany_top_out[1] 0.000399145
2 *491:X 0.000121644
3 *31:10 0.000520789
4 chany_top_out[1] chany_top_out[2] 0
5 chany_top_out[0] chany_top_out[1] 0
6 *479:A *31:10 0
7 *11:15 *31:10 0.000117932
*RES
1 *491:X *31:10 49.1382 
2 *31:10 chany_top_out[1] 1.35893 
*END

*D_NET *32 0.000921909
*CONN
*P chany_top_out[2] O
*I *492:X O *D sky130_fd_sc_hd__clkbuf_4
*CAP
1 chany_top_out[2] 0.000434543
2 *492:X 0.000434543
3 chany_top_out[2] chany_top_out[3] 0
4 chany_top_out[2] *124:14 5.28231e-05
5 chany_top_out[2] *146:10 0
6 chany_top_out[1] chany_top_out[2] 0
*RES
1 *492:X chany_top_out[2] 49.2539 
*END

*D_NET *33 0.000893079
*CONN
*P chany_top_out[3] O
*I *493:X O *D sky130_fd_sc_hd__buf_2
*CAP
1 chany_top_out[3] 0.000376563
2 *493:X 0.000376563
3 chany_top_out[3] chany_top_out[4] 5.90176e-05
4 chany_top_out[3] *124:14 8.0934e-05
5 chany_top_out[2] chany_top_out[3] 0
*RES
1 *493:X chany_top_out[3] 48.1043 
*END

*D_NET *34 0.000970597
*CONN
*P chany_top_out[4] O
*I *494:X O *D sky130_fd_sc_hd__buf_2
*CAP
1 chany_top_out[4] 0.00039226
2 *494:X 0.00039226
3 chany_top_out[4] chany_top_out[5] 0
4 chany_top_out[4] *124:14 0.00012706
5 chany_top_out[3] chany_top_out[4] 5.90176e-05
*RES
1 *494:X chany_top_out[4] 48.5734 
*END

*D_NET *35 0.000728866
*CONN
*P chany_top_out[5] O
*I *495:X O *D sky130_fd_sc_hd__buf_2
*CAP
1 chany_top_out[5] 0.000352082
2 *495:X 0.000352082
3 chany_top_out[5] chany_top_out[6] 0
4 chany_top_out[5] *124:14 2.47015e-05
5 chany_top_out[4] chany_top_out[5] 0
*RES
1 *495:X chany_top_out[5] 47.1648 
*END

*D_NET *36 0.000848098
*CONN
*P chany_top_out[6] O
*I *496:X O *D sky130_fd_sc_hd__buf_2
*CAP
1 chany_top_out[6] 0.000345634
2 *496:X 0.000345634
3 chany_top_out[6] chany_top_out[7] 0.000111235
4 chany_top_out[6] *496:A 2.02517e-05
5 chany_top_out[6] *124:14 2.5343e-05
6 chany_top_out[5] chany_top_out[6] 0
*RES
1 *496:X chany_top_out[6] 48.0141 
*END

*D_NET *37 0.000975419
*CONN
*P chany_top_out[7] O
*I *497:X O *D sky130_fd_sc_hd__buf_2
*CAP
1 chany_top_out[7] 0.000391625
2 *497:X 0.000391625
3 chany_top_out[7] chany_top_out[8] 0
4 chany_top_out[7] *124:14 8.0934e-05
5 chany_top_out[6] chany_top_out[7] 0.000111235
*RES
1 *497:X chany_top_out[7] 48.179 
*END

*D_NET *38 0.00091681
*CONN
*P chany_top_out[8] O
*I *498:X O *D sky130_fd_sc_hd__buf_2
*CAP
1 chany_top_out[8] 0.000436735
2 *498:X 0.000436735
3 chany_top_out[8] right_grid_left_width_0_height_0_subtile_0__pin_I_3_ 0
4 chany_top_out[8] *154:8 4.334e-05
5 chany_top_out[7] chany_top_out[8] 0
*RES
1 *498:X chany_top_out[8] 48.5734 
*END

*D_NET *39 0.000991555
*CONN
*P left_grid_right_width_0_height_0_subtile_0__pin_outpad_0_ O
*I *499:X O *D sky130_fd_sc_hd__clkbuf_4
*CAP
1 left_grid_right_width_0_height_0_subtile_0__pin_outpad_0_ 0.000314164
2 *499:X 0.000168407
3 *39:10 0.000482571
4 chany_bottom_out[8] left_grid_right_width_0_height_0_subtile_0__pin_outpad_0_ 2.64128e-05
5 *21:15 *39:10 0
6 *22:13 *39:10 0
*RES
1 *499:X *39:10 49.4904 
2 *39:10 left_grid_right_width_0_height_0_subtile_0__pin_outpad_0_ 1.16853 
*END

*D_NET *40 0.00736336
*CONN
*P prog_clk I
*I *451:A I *D sky130_fd_sc_hd__clkbuf_16
*CAP
1 prog_clk 0.0024458
2 *451:A 0.000124385
3 *40:15 0.00257019
4 *451:A *347:A 0.00027141
5 *451:A *95:16 0.000266428
6 *451:A *120:29 1.70513e-05
7 *40:15 *391:A 0.000434083
8 *40:15 *401:CLK 0
9 *40:15 *442:A 7.06124e-05
10 *40:15 *454:A 0
11 *40:15 *88:32 0
12 *40:15 *94:8 0
13 *40:15 *109:10 0.000614706
14 *40:15 *111:29 7.38091e-05
15 *40:15 *117:10 2.96369e-05
16 *40:15 *145:8 0.000136793
17 *40:15 *145:10 0.000197479
18 *40:15 *147:8 8.85189e-05
19 chany_bottom_out[0] *40:15 0
20 *475:A *40:15 2.24608e-05
*RES
1 prog_clk *40:15 35.0909 
2 *40:15 *451:A 41.9564 
*END

*D_NET *41 0.000754857
*CONN
*P right_grid_left_width_0_height_0_subtile_0__pin_I_3_ O
*I *500:X O *D sky130_fd_sc_hd__clkbuf_4
*CAP
1 right_grid_left_width_0_height_0_subtile_0__pin_I_3_ 0.000377428
2 *500:X 0.000377428
3 right_grid_left_width_0_height_0_subtile_0__pin_I_3_ right_grid_left_width_0_height_0_subtile_0__pin_I_7_ 0
4 right_grid_left_width_0_height_0_subtile_0__pin_I_3_ *157:10 0
5 chany_top_out[8] right_grid_left_width_0_height_0_subtile_0__pin_I_3_ 0
*RES
1 *500:X right_grid_left_width_0_height_0_subtile_0__pin_I_3_ 47.7004 
*END

*D_NET *42 0.000938786
*CONN
*P right_grid_left_width_0_height_0_subtile_0__pin_I_7_ O
*I *501:X O *D sky130_fd_sc_hd__buf_2
*CAP
1 right_grid_left_width_0_height_0_subtile_0__pin_I_7_ 0.000420151
2 *501:X 0.000420151
3 right_grid_left_width_0_height_0_subtile_0__pin_I_3_ right_grid_left_width_0_height_0_subtile_0__pin_I_7_ 0
4 *1:25 right_grid_left_width_0_height_0_subtile_0__pin_I_7_ 9.84835e-05
*RES
1 *501:X right_grid_left_width_0_height_0_subtile_0__pin_I_7_ 48.0141 
*END

*D_NET *45 0.000269791
*CONN
*I *373:A I *D sky130_fd_sc_hd__clkbuf_1
*I *372:X O *D sky130_fd_sc_hd__clkbuf_1
*CAP
1 *373:A 8.30271e-05
2 *372:X 8.30271e-05
3 *373:A *63:10 3.22051e-05
4 *373:A *90:39 1.89688e-05
5 *373:A *112:31 5.25626e-05
*RES
1 *372:X *373:A 48.4236 
*END

*D_NET *46 0.00111264
*CONN
*I *375:A I *D sky130_fd_sc_hd__clkbuf_1
*I *374:X O *D sky130_fd_sc_hd__clkbuf_1
*CAP
1 *375:A 0.000159719
2 *374:X 0.000147168
3 *46:10 0.000306887
4 *375:A *129:20 0.000224315
5 *375:A *170:14 0.000137651
6 *46:10 *401:D 9.92279e-05
7 *46:10 *98:12 3.76761e-05
*RES
1 *374:X *46:10 40.2993 
2 *46:10 *375:A 41.8529 
*END

*D_NET *47 0.000849576
*CONN
*I *377:A I *D sky130_fd_sc_hd__clkbuf_1
*I *376:X O *D sky130_fd_sc_hd__clkbuf_1
*CAP
1 *377:A 0.000142625
2 *376:X 4.92713e-05
3 *47:8 0.000191896
4 *377:A *496:A 0.00027064
5 *377:A *108:10 7.87243e-05
6 *47:8 *90:39 2.79004e-05
7 *47:8 *152:10 8.85189e-05
*RES
1 *376:X *47:8 39.2014 
2 *47:8 *377:A 42.35 
*END

*D_NET *48 0.000251586
*CONN
*I *339:A I *D sky130_fd_sc_hd__clkbuf_1
*I *338:X O *D sky130_fd_sc_hd__clkbuf_1
*CAP
1 *339:A 0.000125793
2 *338:X 0.000125793
*RES
1 *338:X *339:A 48.4236 
*END

*D_NET *49 0.00419924
*CONN
*I *341:A I *D sky130_fd_sc_hd__clkbuf_1
*I *340:X O *D sky130_fd_sc_hd__clkbuf_1
*CAP
1 *341:A 0
2 *340:X 7.32798e-05
3 *49:18 0.00108334
4 *49:8 0.00115662
5 *49:8 *98:6 0.000537467
6 *49:8 *129:20 0.000536722
7 *49:18 *340:A 0
8 *49:18 *78:10 5.40752e-05
9 *49:18 *83:8 5.09749e-05
10 *49:18 *85:14 0
11 *49:18 *112:14 0.000578424
12 *49:18 *112:31 0.000128337
*RES
1 *340:X *49:8 43.8621 
2 *49:8 *49:18 37.475 
3 *49:18 *341:A 23 
*END

*D_NET *50 0.000675519
*CONN
*I *346:A I *D sky130_fd_sc_hd__clkbuf_1
*I *345:X O *D sky130_fd_sc_hd__clkbuf_1
*CAP
1 *346:A 8.89899e-05
2 *345:X 0.000195439
3 *50:10 0.000284429
4 *50:10 *483:A 1.81415e-05
5 *50:10 *76:8 8.85189e-05
*RES
1 *345:X *50:10 40.7757 
2 *50:10 *346:A 39.8229 
*END

*D_NET *51 0.00186742
*CONN
*I *348:A I *D sky130_fd_sc_hd__clkbuf_1
*I *347:X O *D sky130_fd_sc_hd__clkbuf_1
*CAP
1 *348:A 0.000276421
2 *347:X 0.000292596
3 *51:10 0.000569017
4 *348:A *343:A 0.000224315
5 *348:A *397:CLK 2.32101e-05
6 *348:A *141:10 3.15432e-05
7 *51:10 *347:A 0.000166672
8 *51:10 *96:18 8.92944e-05
9 *51:10 *111:29 0.000138718
10 *51:10 *120:29 5.56356e-05
11 *51:10 *168:8 0
*RES
1 *347:X *51:10 43.945 
2 *51:10 *348:A 42.93 
*END

*D_NET *52 0.000406973
*CONN
*I *351:A I *D sky130_fd_sc_hd__clkbuf_1
*I *350:X O *D sky130_fd_sc_hd__clkbuf_1
*CAP
1 *351:A 8.10434e-05
2 *350:X 3.89947e-05
3 *52:8 0.000120038
4 *351:A *141:20 0
5 *52:8 *126:32 8.71559e-05
6 *52:8 *139:10 7.46212e-05
7 *52:8 *139:14 5.11935e-06
*RES
1 *350:X *52:8 39.2014 
2 *52:8 *351:A 39.4707 
*END

*D_NET *53 0.0010379
*CONN
*I *353:A I *D sky130_fd_sc_hd__clkbuf_1
*I *352:X O *D sky130_fd_sc_hd__clkbuf_1
*CAP
1 *353:A 0
2 *352:X 0.00031698
3 *53:14 0.00031698
4 *53:14 *385:A 0.000201849
5 *53:14 *71:10 0.000157052
6 *53:14 *132:16 4.50431e-05
*RES
1 *352:X *53:14 30.1464 
2 *53:14 *353:A 23 
*END

*D_NET *54 0.000835674
*CONN
*I *357:A I *D sky130_fd_sc_hd__clkbuf_1
*I *356:X O *D sky130_fd_sc_hd__clkbuf_1
*CAP
1 *357:A 0
2 *356:X 0.000261229
3 *54:8 0.000261229
4 *54:8 *443:A 0.000108188
5 *54:8 *443:TE_B 9.64943e-05
6 *54:8 *112:31 0.000108534
*RES
1 *356:X *54:8 29.235 
2 *54:8 *357:A 23 
*END

*D_NET *55 0.00040411
*CONN
*I *359:A I *D sky130_fd_sc_hd__clkbuf_1
*I *358:X O *D sky130_fd_sc_hd__clkbuf_1
*CAP
1 *359:A 5.47707e-05
2 *358:X 4.63418e-05
3 *55:8 0.000101113
4 *359:A *72:14 3.91386e-05
5 *359:A *96:6 1.76557e-05
6 *359:A *96:10 1.32314e-05
7 *55:8 *397:CLK 4.334e-05
8 *55:8 *79:10 8.85189e-05
*RES
1 *358:X *55:8 39.2014 
2 *55:8 *359:A 39.4707 
*END

*D_NET *56 0.00030123
*CONN
*I *364:A I *D sky130_fd_sc_hd__clkbuf_1
*I *363:X O *D sky130_fd_sc_hd__clkbuf_1
*CAP
1 *364:A 9.30322e-05
2 *363:X 9.30322e-05
3 *364:A *363:A 1.81777e-05
4 *364:A *380:A 0
5 *364:A *64:10 2.07484e-05
6 *364:A *66:8 7.62395e-05
*RES
1 *363:X *364:A 48.4236 
*END

*D_NET *57 0.000751211
*CONN
*I *367:A I *D sky130_fd_sc_hd__clkbuf_1
*I *366:X O *D sky130_fd_sc_hd__clkbuf_1
*CAP
1 *367:A 1.75594e-05
2 *366:X 0.000194254
3 *57:10 0.000211813
4 *367:A *374:A 0.000100061
5 *367:A *401:D 0.000101762
6 *57:10 *446:A 5.12254e-05
7 *57:10 *90:83 6.4393e-05
8 *57:10 *98:12 1.01436e-05
*RES
1 *366:X *57:10 41.3557 
2 *57:10 *367:A 39.0979 
*END

*D_NET *58 0.000593416
*CONN
*I *369:A I *D sky130_fd_sc_hd__clkbuf_1
*I *368:X O *D sky130_fd_sc_hd__clkbuf_1
*CAP
1 *369:A 0
2 *368:X 0.000144966
3 *58:10 0.000144966
4 *58:10 *495:A 3.67805e-05
5 *58:10 *153:12 0.000266703
*RES
1 *368:X *58:10 41.3557 
2 *58:10 *369:A 38 
*END

*D_NET *59 0.000805864
*CONN
*I *420:TE_B I *D sky130_fd_sc_hd__ebufn_1
*I *377:X O *D sky130_fd_sc_hd__clkbuf_1
*CAP
1 *420:TE_B 0
2 *377:X 0.000168399
3 *59:8 0.000168399
4 *59:8 *61:10 0.000196794
5 *59:8 *107:16 0.000141879
6 *59:8 *108:33 7.17759e-05
7 *59:8 *124:14 0
8 *59:8 *153:12 5.86165e-05
*RES
1 *377:X *59:8 42.7229 
2 *59:8 *420:TE_B 38 
*END

*D_NET *60 0.000325094
*CONN
*I *422:TE_B I *D sky130_fd_sc_hd__ebufn_1
*I *375:X O *D sky130_fd_sc_hd__clkbuf_1
*CAP
1 *422:TE_B 0
2 *375:X 5.73903e-05
3 *60:8 5.73903e-05
4 *60:8 *98:12 6.93553e-05
5 *60:8 *129:20 0.000140958
*RES
1 *375:X *60:8 39.9057 
2 *60:8 *422:TE_B 38 
*END

*D_NET *61 0.000925194
*CONN
*I *423:TE_B I *D sky130_fd_sc_hd__ebufn_2
*I *369:X O *D sky130_fd_sc_hd__clkbuf_1
*CAP
1 *423:TE_B 0
2 *369:X 0.000322537
3 *61:10 0.000322537
4 *61:10 *432:TE_B 0
5 *61:10 *495:A 1.94812e-05
6 *61:10 *108:33 6.38433e-05
7 *59:8 *61:10 0.000196794
*RES
1 *369:X *61:10 44.0486 
2 *61:10 *423:TE_B 38 
*END

*D_NET *62 0.001796
*CONN
*I *424:TE_B I *D sky130_fd_sc_hd__ebufn_1
*I *367:X O *D sky130_fd_sc_hd__clkbuf_1
*CAP
1 *424:TE_B 0
2 *367:X 0.000597294
3 *62:10 0.000597294
4 *62:10 *374:A 4.5051e-05
5 *62:10 *380:A 0.000208988
6 *62:10 *90:66 0.000137651
7 *62:10 *100:10 0.000168862
8 *62:10 *104:10 4.08641e-05
9 *62:10 *172:10 0
*RES
1 *367:X *62:10 47.6736 
2 *62:10 *424:TE_B 38 
*END

*D_NET *63 0.00101616
*CONN
*I *425:TE_B I *D sky130_fd_sc_hd__ebufn_1
*I *373:X O *D sky130_fd_sc_hd__clkbuf_1
*CAP
1 *425:TE_B 0.00012836
2 *373:X 0.000284905
3 *63:10 0.000413266
4 *63:10 *372:A 2.93335e-05
5 *63:10 *389:A 1.01436e-05
6 *63:10 *429:TE_B 5.37348e-06
7 *63:10 *74:8 0
8 *63:10 *90:10 1.03972e-05
9 *63:10 *90:31 8.62876e-05
10 *63:10 *90:39 9.24795e-06
11 *63:10 *112:31 6.64159e-06
12 *373:A *63:10 3.22051e-05
*RES
1 *373:X *63:10 42.4329 
2 *63:10 *425:TE_B 40.0507 
*END

*D_NET *64 0.000429026
*CONN
*I *426:TE_B I *D sky130_fd_sc_hd__ebufn_1
*I *364:X O *D sky130_fd_sc_hd__clkbuf_1
*CAP
1 *426:TE_B 0
2 *364:X 0.00016996
3 *64:10 0.00016996
4 *64:10 *66:8 3.52233e-06
5 *64:10 *91:14 6.48356e-05