*SPEF "ieee 1481-1999"
*DESIGN "cby_1__1_"
*DATE "11:11:11 Fri 11 11, 1111"
*VENDOR "OpenRCX"
*PROGRAM "Parallel Extraction"
*VERSION "1.0"
*DESIGN_FLOW "NAME_SCOPE LOCAL" "PIN_CAP NONE"
*DIVIDER /
*DELIMITER :
*BUS_DELIMITER []
*T_UNIT 1 NS
*C_UNIT 1 PF
*R_UNIT 1 OHM
*L_UNIT 1 HENRY

*NAME_MAP
*1 ccff_head
*2 ccff_tail
*3 chany_bottom_in[0]
*4 chany_bottom_in[1]
*5 chany_bottom_in[2]
*6 chany_bottom_in[3]
*7 chany_bottom_in[4]
*8 chany_bottom_in[5]
*9 chany_bottom_in[6]
*10 chany_bottom_in[7]
*11 chany_bottom_in[8]
*12 chany_bottom_out[0]
*13 chany_bottom_out[1]
*14 chany_bottom_out[2]
*15 chany_bottom_out[3]
*16 chany_bottom_out[4]
*17 chany_bottom_out[5]
*18 chany_bottom_out[6]
*19 chany_bottom_out[7]
*20 chany_bottom_out[8]
*21 chany_top_in[0]
*22 chany_top_in[1]
*23 chany_top_in[2]
*24 chany_top_in[3]
*25 chany_top_in[4]
*26 chany_top_in[5]
*27 chany_top_in[6]
*28 chany_top_in[7]
*29 chany_top_in[8]
*30 chany_top_out[0]
*31 chany_top_out[1]
*32 chany_top_out[2]
*33 chany_top_out[3]
*34 chany_top_out[4]
*35 chany_top_out[5]
*36 chany_top_out[6]
*37 chany_top_out[7]
*38 chany_top_out[8]
*39 left_grid_right_width_0_height_0_subtile_0__pin_I_1_
*40 left_grid_right_width_0_height_0_subtile_0__pin_I_5_
*41 left_grid_right_width_0_height_0_subtile_0__pin_I_9_
*42 prog_clk
*43 right_grid_left_width_0_height_0_subtile_0__pin_I_3_
*44 right_grid_left_width_0_height_0_subtile_0__pin_I_7_
*47 _000_
*48 _001_
*49 _002_
*50 _003_
*51 _004_
*52 _005_
*53 _006_
*54 _007_
*55 _008_
*56 _009_
*57 _010_
*58 _011_
*59 _012_
*60 _013_
*61 _014_
*62 _015_
*63 _016_
*64 _017_
*65 _018_
*66 _019_
*67 _020_
*68 _021_
*69 _022_
*70 _023_
*71 _024_
*72 _025_
*73 _026_
*74 _027_
*75 _028_
*76 _029_
*77 _030_
*78 _031_
*79 _032_
*80 _033_
*81 _034_
*82 _035_
*83 _036_
*84 _037_
*85 _038_
*86 _039_
*87 _040_
*88 _041_
*89 _042_
*90 _043_
*91 _044_
*92 _045_
*93 _046_
*94 _047_
*95 _048_
*96 _049_
*97 _050_
*98 _051_
*99 _052_
*100 _053_
*101 clknet_0_prog_clk
*102 clknet_1_0__leaf_prog_clk
*103 clknet_1_1__leaf_prog_clk
*104 mem_left_ipin_0\.DFF_0_\.Q
*105 mem_left_ipin_0\.DFF_1_\.Q
*106 mem_left_ipin_0\.DFF_2_\.Q
*107 mem_left_ipin_1\.DFF_0_\.Q
*108 mem_left_ipin_1\.DFF_1_\.Q
*109 mem_right_ipin_0\.DFF_0_\.Q
*110 mem_right_ipin_0\.DFF_1_\.Q
*111 mem_right_ipin_0\.DFF_2_\.Q
*112 mem_right_ipin_1\.DFF_0_\.Q
*113 mem_right_ipin_1\.DFF_1_\.Q
*114 mem_right_ipin_2\.DFF_0_\.Q
*115 mux_left_ipin_0\.INVTX1_0_\.out
*116 mux_left_ipin_0\.INVTX1_1_\.out
*117 mux_left_ipin_0\.INVTX1_2_\.out
*118 mux_left_ipin_0\.INVTX1_3_\.out
*119 mux_left_ipin_0\.INVTX1_4_\.out
*120 mux_left_ipin_0\.INVTX1_5_\.out
*121 mux_left_ipin_0\.mux_l1_in_0_\.TGATE_0_\.out
*122 mux_left_ipin_0\.mux_l1_in_1_\.TGATE_0_\.out
*123 mux_left_ipin_0\.mux_l1_in_2_\.TGATE_0_\.out
*124 mux_left_ipin_0\.mux_l2_in_0_\.TGATE_0_\.out
*125 mux_left_ipin_0\.mux_l2_in_1_\.TGATE_0_\.out
*126 mux_left_ipin_0\.mux_l3_in_0_\.TGATE_0_\.out
*127 mux_left_ipin_1\.INVTX1_0_\.out
*128 mux_left_ipin_1\.INVTX1_1_\.out
*129 mux_left_ipin_1\.mux_l1_in_0_\.TGATE_0_\.out
*130 mux_left_ipin_1\.mux_l2_in_0_\.TGATE_0_\.out
*131 mux_right_ipin_0\.INVTX1_2_\.out
*132 mux_right_ipin_0\.INVTX1_3_\.out
*133 mux_right_ipin_0\.INVTX1_4_\.out
*134 mux_right_ipin_0\.INVTX1_5_\.out
*135 mux_right_ipin_0\.mux_l1_in_0_\.TGATE_0_\.out
*136 mux_right_ipin_0\.mux_l1_in_1_\.TGATE_0_\.out
*137 mux_right_ipin_0\.mux_l1_in_2_\.TGATE_0_\.out
*138 mux_right_ipin_0\.mux_l2_in_0_\.TGATE_0_\.out
*139 mux_right_ipin_0\.mux_l2_in_1_\.TGATE_0_\.out
*140 mux_right_ipin_0\.mux_l3_in_0_\.TGATE_0_\.out
*141 mux_right_ipin_1\.INVTX1_0_\.out
*142 mux_right_ipin_1\.INVTX1_1_\.out
*143 mux_right_ipin_1\.mux_l1_in_0_\.TGATE_0_\.out
*144 mux_right_ipin_1\.mux_l2_in_0_\.TGATE_0_\.out
*145 mux_right_ipin_2\.mux_l1_in_0_\.TGATE_0_\.out
*146 mux_right_ipin_2\.mux_l2_in_0_\.TGATE_0_\.out
*147 net1
*148 net10
*149 net11
*150 net12
*151 net13
*152 net14
*153 net15
*154 net16
*155 net17
*156 net18
*157 net19
*158 net2
*159 net20
*160 net21
*161 net22
*162 net23
*163 net24
*164 net25
*165 net26
*166 net27
*167 net28
*168 net29
*169 net3
*170 net30
*171 net31
*172 net32
*173 net33
*174 net34
*175 net35
*176 net36
*177 net37
*178 net38
*179 net39
*180 net4
*181 net40
*182 net41
*183 net42
*184 net43
*185 net44
*186 net45
*187 net46
*188 net47
*189 net48
*190 net49
*191 net5
*192 net50
*193 net51
*194 net52
*195 net53
*196 net54
*197 net55
*198 net56
*199 net57
*200 net58
*201 net59
*202 net6
*203 net7
*204 net8
*205 net9
*206 FILLER_0_0_13
*207 FILLER_0_0_27
*208 FILLER_0_0_32
*209 FILLER_0_0_37
*210 FILLER_0_0_45
*211 FILLER_0_0_50
*212 FILLER_0_0_57
*213 FILLER_0_0_63
*214 FILLER_0_0_71
*215 FILLER_0_0_76
*216 FILLER_0_0_80
*217 FILLER_0_0_85
*218 FILLER_0_0_9
*219 FILLER_0_0_92
*220 FILLER_0_10_26
*221 FILLER_0_10_37
*222 FILLER_0_10_47
*223 FILLER_0_10_53
*224 FILLER_0_10_76
*225 FILLER_0_10_80
*226 FILLER_0_10_85
*227 FILLER_0_10_9
*228 FILLER_0_10_98
*229 FILLER_0_11_19
*230 FILLER_0_11_55
*231 FILLER_0_11_73
*232 FILLER_0_11_9
*233 FILLER_0_11_95
*234 FILLER_0_12_23
*235 FILLER_0_12_3
*236 FILLER_0_12_48
*237 FILLER_0_12_81
*238 FILLER_0_12_85
*239 FILLER_0_13_101
*240 FILLER_0_13_29
*241 FILLER_0_13_3
*242 FILLER_0_13_57
*243 FILLER_0_13_67
*244 FILLER_0_13_77
*245 FILLER_0_13_85
*246 FILLER_0_13_91
*247 FILLER_0_1_101
*248 FILLER_0_1_13
*249 FILLER_0_1_32
*250 FILLER_0_1_44
*251 FILLER_0_1_57
*252 FILLER_0_1_6
*253 FILLER_0_1_69
*254 FILLER_0_1_81
*255 FILLER_0_2_25
*256 FILLER_0_2_32
*257 FILLER_0_2_38
*258 FILLER_0_2_53
*259 FILLER_0_2_68
*260 FILLER_0_2_80
*261 FILLER_0_2_85
*262 FILLER_0_2_9
*263 FILLER_0_3_101
*264 FILLER_0_3_12
*265 FILLER_0_3_28
*266 FILLER_0_3_54
*267 FILLER_0_3_57
*268 FILLER_0_3_76
*269 FILLER_0_4_101
*270 FILLER_0_5_101
*271 FILLER_0_5_36
*272 FILLER_0_5_9
*273 FILLER_0_6_12
*274 FILLER_0_6_24
*275 FILLER_0_6_32
*276 FILLER_0_6_49
*277 FILLER_0_6_57
*278 FILLER_0_6_64
*279 FILLER_0_6_74
*280 FILLER_0_7_26
*281 FILLER_0_7_43
*282 FILLER_0_7_68
*283 FILLER_0_7_87
*284 FILLER_0_8_19
*285 FILLER_0_8_79
*286 FILLER_0_9_102
*287 FILLER_0_9_45
*288 FILLER_0_9_82
*289 FILLER_0_9_87
*290 PHY_0
*291 PHY_1
*292 PHY_10
*293 PHY_11
*294 PHY_12
*295 PHY_13
*296 PHY_14
*297 PHY_15
*298 PHY_16
*299 PHY_17
*300 PHY_18
*301 PHY_19
*302 PHY_2
*303 PHY_20
*304 PHY_21
*305 PHY_22
*306 PHY_23
*307 PHY_24
*308 PHY_25
*309 PHY_26
*310 PHY_27
*311 PHY_3
*312 PHY_4
*313 PHY_5
*314 PHY_6
*315 PHY_7
*316 PHY_8
*317 PHY_9
*318 TAP_28
*319 TAP_29
*320 TAP_30
*321 TAP_31
*322 TAP_32
*323 TAP_33
*324 TAP_34
*325 TAP_35
*326 TAP_36
*327 TAP_37
*328 TAP_38
*329 TAP_39
*330 TAP_40
*331 TAP_41
*332 TAP_42
*333 TAP_43
*334 TAP_44
*335 TAP_45
*336 TAP_46
*337 TAP_47
*338 TAP_48
*339 TAP_49
*340 TAP_50
*341 TAP_51
*342 _059_
*343 _060_
*344 _061_
*345 _062_
*346 _063_
*347 _064_
*348 _065_
*349 _066_
*350 _067_
*351 _068_
*352 _069_
*353 _070_
*354 _071_
*355 _072_
*356 _073_
*357 _074_
*358 _075_
*359 _076_
*360 _077_
*361 _078_
*362 _079_
*363 _080_
*364 _081_
*365 _082_
*366 _083_
*367 _084_
*368 _085_
*369 _086_
*370 _087_
*371 _088_
*372 _089_
*373 _090_
*374 _091_
*375 _092_
*376 _093_
*377 _094_
*378 _095_
*379 _096_
*380 _097_
*381 _098_
*382 _099_
*383 _100_
*384 _101_
*385 _102_
*386 _103_
*387 _104_
*388 _105_
*389 _106_
*390 _107_
*391 _108_
*392 _109_
*393 _110_
*394 _111_
*395 _112_
*396 _113_
*397 _114_
*398 _115_
*399 _116_
*400 _117_
*401 _118_
*402 _119_
*403 _120_
*404 _121_
*405 _122_
*406 _123_
*407 _124_
*408 _125_
*409 _126_
*410 _127_
*411 _128_
*412 _129_
*413 _130_
*414 _131_
*415 _132_
*416 _133_
*417 _134_
*418 _135_
*419 _136_
*420 _137_
*421 _138_
*422 _139_
*423 _140_
*424 _141_
*425 _142_
*426 _143_
*427 _149_
*428 _150_
*429 _151_
*430 _152_
*431 _153_
*432 _154_
*433 _155_
*434 _156_
*435 _157_
*436 _158_
*437 _159_
*438 _160_
*439 _161_
*440 _162_
*441 _163_
*442 _164_
*443 _165_
*444 _166_
*445 _167_
*446 _167__44
*447 _168_
*448 _169_
*449 _170_
*450 _171_
*451 _172_
*452 _173_
*453 _174_
*454 _175_
*455 _176_
*456 _177_
*457 _178_
*458 _179_
*459 _180_
*460 _180__45
*461 _181_
*462 _182_
*463 _183_
*464 _184_
*465 _185_
*466 _186_
*467 _187_
*468 _188_
*469 _189_
*470 _190_
*471 _191_
*472 _191__46
*473 _192_
*474 _193_
*475 _194_
*476 _195_
*477 _195__47
*478 _196_
*479 _197_
*480 _198_
*481 _199_
*482 _199__48
*483 _200_
*484 _201_
*485 _202_
*486 clkbuf_0_prog_clk
*487 clkbuf_1_0__f_prog_clk
*488 clkbuf_1_1__f_prog_clk
*489 hold1
*490 hold10
*491 hold11
*492 hold2
*493 hold3
*494 hold4
*495 hold5
*496 hold6
*497 hold7
*498 hold8
*499 hold9
*500 input1
*501 input10
*502 input11
*503 input12
*504 input13
*505 input14
*506 input15
*507 input16
*508 input17
*509 input18
*510 input19
*511 input2
*512 input3
*513 input4
*514 input5
*515 input6
*516 input7
*517 input8
*518 input9
*519 output20
*520 output21
*521 output22
*522 output23
*523 output24
*524 output25
*525 output26
*526 output27
*527 output28
*528 output29
*529 output30
*530 output31
*531 output32
*532 output33
*533 output34
*534 output35
*535 output36
*536 output37
*537 output38
*538 output39
*539 output40
*540 output41
*541 output42
*542 output43

*PORTS
ccff_head I
ccff_tail O
chany_bottom_in[0] I
chany_bottom_in[1] I
chany_bottom_in[2] I
chany_bottom_in[3] I
chany_bottom_in[4] I
chany_bottom_in[5] I
chany_bottom_in[6] I
chany_bottom_in[7] I
chany_bottom_in[8] I
chany_bottom_out[0] O
chany_bottom_out[1] O
chany_bottom_out[2] O
chany_bottom_out[3] O
chany_bottom_out[4] O
chany_bottom_out[5] O
chany_bottom_out[6] O
chany_bottom_out[7] O
chany_bottom_out[8] O
chany_top_in[0] I
chany_top_in[1] I
chany_top_in[2] I
chany_top_in[3] I
chany_top_in[4] I
chany_top_in[5] I
chany_top_in[6] I
chany_top_in[7] I
chany_top_in[8] I
chany_top_out[0] O
chany_top_out[1] O
chany_top_out[2] O
chany_top_out[3] O
chany_top_out[4] O
chany_top_out[5] O
chany_top_out[6] O
chany_top_out[7] O
chany_top_out[8] O
left_grid_right_width_0_height_0_subtile_0__pin_I_1_ O
left_grid_right_width_0_height_0_subtile_0__pin_I_5_ O
left_grid_right_width_0_height_0_subtile_0__pin_I_9_ O
prog_clk I
right_grid_left_width_0_height_0_subtile_0__pin_I_3_ O
right_grid_left_width_0_height_0_subtile_0__pin_I_7_ O

*D_NET *1 0.0019555
*CONN
*P ccff_head I
*I *500:A I *D sky130_fd_sc_hd__clkbuf_1
*CAP
1 ccff_head 0.000816663
2 *500:A 0
3 *1:23 0.000816663
4 *1:23 ccff_tail 0
5 *1:23 right_grid_left_width_0_height_0_subtile_0__pin_I_7_ 0.000102513
6 *1:23 *29:13 0.000130086
7 *1:23 *157:10 5.73288e-05
8 *1:23 *159:35 3.22467e-05
9 *1:23 *184:20 0
*RES
1 ccff_head *1:23 32.7067 
2 *1:23 *500:A 23 
*END

*D_NET *2 0.001282
*CONN
*P ccff_tail O
*I *519:X O *D sky130_fd_sc_hd__clkbuf_4
*CAP
1 ccff_tail 0.000333678
2 *519:X 0.000307324
3 *2:10 0.000641002
4 *2:10 *509:A 0
5 *2:10 *29:13 0
6 *1:23 ccff_tail 0
*RES
1 *519:X *2:10 43.8725 
2 *2:10 ccff_tail 8.9296 
*END

*D_NET *3 0.00389274
*CONN
*P chany_bottom_in[0] I
*I *511:A I *D sky130_fd_sc_hd__buf_1
*CAP
1 chany_bottom_in[0] 0.00139103
2 *511:A 0
3 *3:15 0.000131872
4 *3:9 0.00152291
5 *3:9 chany_bottom_out[0] 2.19639e-05
6 *3:9 *4:13 0
7 *3:9 *116:12 0.00078627
8 *3:15 *513:A 0
9 *3:15 *514:A 0
10 *3:15 *127:12 0
11 *3:15 *149:42 3.8696e-05
*RES
1 chany_bottom_in[0] *3:9 38.7593 
2 *3:9 *3:15 31.9057 
3 *3:15 *511:A 23 
*END

*D_NET *4 0.00138191
*CONN
*P chany_bottom_in[1] I
*I *512:A I *D sky130_fd_sc_hd__buf_1
*CAP
1 chany_bottom_in[1] 0.000629557
2 *512:A 0
3 *4:13 0.000629557
4 *4:13 *42:13 0.0001228
5 *4:13 *116:8 0
6 *4:13 *116:12 0
7 *3:9 *4:13 0
*RES
1 chany_bottom_in[1] *4:13 42.8014 
2 *4:13 *512:A 38 
*END

*D_NET *5 0.00105828
*CONN
*P chany_bottom_in[2] I
*I *513:A I *D sky130_fd_sc_hd__buf_1
*CAP
1 chany_bottom_in[2] 0.000438288
2 *513:A 0.000438288
3 *513:A *42:13 0.000108603
4 *513:A *127:12 1.14452e-05
5 *513:A *161:10 6.16531e-05
6 *3:15 *513:A 0
*RES
1 chany_bottom_in[2] *513:A 47.4664 
*END

*D_NET *6 0.000921768
*CONN
*P chany_bottom_in[3] I
*I *514:A I *D sky130_fd_sc_hd__buf_1
*CAP
1 chany_bottom_in[3] 0.000453656
2 *514:A 0.000453656
3 *514:A *149:42 1.44546e-05
4 *3:15 *514:A 0
*RES
1 chany_bottom_in[3] *514:A 47.3214 
*END

*D_NET *7 0.000887398
*CONN
*P chany_bottom_in[4] I
*I *515:A I *D sky130_fd_sc_hd__buf_1
*CAP
1 chany_bottom_in[4] 0.000443699
2 *515:A 0.000443699
*RES
1 chany_bottom_in[4] *515:A 47.3214 
*END

*D_NET *8 0.000884361
*CONN
*P chany_bottom_in[5] I
*I *516:A I *D sky130_fd_sc_hd__clkbuf_1
*CAP
1 chany_bottom_in[5] 0.00041411
2 *516:A 0.00041411
3 *516:A *116:18 5.61414e-05
*RES
1 chany_bottom_in[5] *516:A 47.3214 
*END

*D_NET *9 0.00100744
*CONN
*P chany_bottom_in[6] I
*I *517:A I *D sky130_fd_sc_hd__buf_1
*CAP
1 chany_bottom_in[6] 0.00049398
2 *517:A 0.00049398
3 *517:A *116:18 0
4 *517:A *204:8 1.94812e-05
*RES
1 chany_bottom_in[6] *517:A 48.2743 
*END

*D_NET *10 0.000871163
*CONN
*P chany_bottom_in[7] I
*I *518:A I *D sky130_fd_sc_hd__clkbuf_1
*CAP
1 chany_bottom_in[7] 0.000435582
2 *518:A 0.000435582
3 *518:A *31:10 0
4 *518:A *170:12 0
*RES
1 chany_bottom_in[7] *518:A 47.4664 
*END

*D_NET *11 0.00242457
*CONN
*P chany_bottom_in[8] I
*I *501:A I *D sky130_fd_sc_hd__buf_1
*CAP
1 chany_bottom_in[8] 0.000781404
2 *501:A 0
3 *11:11 0.000781404
4 *11:11 chany_top_out[2] 1.09783e-05
5 *11:11 *529:A 8.06171e-05
6 *11:11 *530:A 0.000359271
7 *11:11 *30:10 0
8 *11:11 *31:10 7.56584e-05
9 *11:11 *148:8 5.67058e-05
10 *11:11 *177:12 0.000278535
*RES
1 chany_bottom_in[8] *11:11 33.4979 
2 *11:11 *501:A 23 
*END

*D_NET *12 0.000588546
*CONN
*P chany_bottom_out[0] O
*I *520:X O *D sky130_fd_sc_hd__clkbuf_4
*CAP
1 chany_bottom_out[0] 0.000283291
2 *520:X 0.000283291
3 chany_bottom_out[0] chany_bottom_out[1] 0
4 chany_bottom_out[0] *42:13 0
5 *3:9 chany_bottom_out[0] 2.19639e-05
*RES
1 *520:X chany_bottom_out[0] 49.5289 
*END

*D_NET *13 0.000701561
*CONN
*P chany_bottom_out[1] O
*I *521:X O *D sky130_fd_sc_hd__clkbuf_4
*CAP
1 chany_bottom_out[1] 9.75781e-05
2 *521:X 0.000253202
3 *13:10 0.00035078
4 chany_bottom_out[1] chany_bottom_out[2] 0
5 *13:10 chany_bottom_out[2] 0
6 *13:10 *109:42 0
7 chany_bottom_out[0] chany_bottom_out[1] 0
*RES
1 *521:X *13:10 42.6089 
2 *13:10 chany_bottom_out[1] 8.32853 
*END

*D_NET *14 0.000671867
*CONN
*P chany_bottom_out[2] O
*I *522:X O *D sky130_fd_sc_hd__clkbuf_4
*CAP
1 chany_bottom_out[2] 0.000335933
2 *522:X 0.000335933
3 chany_bottom_out[2] chany_bottom_out[3] 0
4 chany_bottom_out[1] chany_bottom_out[2] 0
5 *13:10 chany_bottom_out[2] 0
*RES
1 *522:X chany_bottom_out[2] 49.6532 
*END

*D_NET *15 0.000803835
*CONN
*P chany_bottom_out[3] O
*I *523:X O *D sky130_fd_sc_hd__clkbuf_4
*CAP
1 chany_bottom_out[3] 9.15931e-05
2 *523:X 0.000310324
3 *15:10 0.000401918
4 chany_bottom_out[3] chany_bottom_out[4] 0
5 *15:10 *150:18 0
6 *15:10 *164:10 0
7 chany_bottom_out[2] chany_bottom_out[3] 0
*RES
1 *523:X *15:10 42.7332 
2 *15:10 chany_bottom_out[3] 8.32853 
*END

*D_NET *16 0.000619301
*CONN
*P chany_bottom_out[4] O
*I *524:X O *D sky130_fd_sc_hd__clkbuf_4
*CAP
1 chany_bottom_out[4] 0.000290506
2 *524:X 0.000290506
3 chany_bottom_out[4] chany_bottom_out[5] 0
4 chany_bottom_out[4] *150:18 1.56403e-05
5 chany_bottom_out[4] *164:10 2.26497e-05
6 chany_bottom_out[3] chany_bottom_out[4] 0
*RES
1 *524:X chany_bottom_out[4] 47.2507 
*END

*D_NET *17 0.00051617
*CONN
*P chany_bottom_out[5] O
*I *525:X O *D sky130_fd_sc_hd__clkbuf_4
*CAP
1 chany_bottom_out[5] 0.000258085
2 *525:X 0.000258085
3 chany_bottom_out[5] chany_bottom_out[6] 0
4 chany_bottom_out[4] chany_bottom_out[5] 0
*RES
1 *525:X chany_bottom_out[5] 49.1767 
*END

*D_NET *18 0.000812992
*CONN
*P chany_bottom_out[6] O
*I *526:X O *D sky130_fd_sc_hd__clkbuf_4
*CAP
1 chany_bottom_out[6] 9.15931e-05
2 *526:X 0.000314903
3 *18:10 0.000406496
4 chany_bottom_out[6] chany_bottom_out[7] 0
5 *18:10 *21:13 0
6 *18:10 *111:27 0
7 *18:10 *150:18 0
8 chany_bottom_out[5] chany_bottom_out[6] 0
*RES
1 *526:X *18:10 44.0175 
2 *18:10 chany_bottom_out[6] 8.32853 
*END

*D_NET *19 0.00081708
*CONN
*P chany_bottom_out[7] O
*I *527:X O *D sky130_fd_sc_hd__clkbuf_4
*CAP
1 chany_bottom_out[7] 0.000370913
2 *527:X 0.000370913
3 chany_bottom_out[7] chany_bottom_out[8] 5.48019e-05
4 chany_bottom_out[7] *21:13 0
5 chany_bottom_out[7] *150:18 2.04508e-05
6 chany_bottom_out[6] chany_bottom_out[7] 0
*RES
1 *527:X chany_bottom_out[7] 47.8828 
*END

*D_NET *20 0.00120401
*CONN
*P chany_bottom_out[8] O
*I *528:X O *D sky130_fd_sc_hd__clkbuf_4
*CAP
1 chany_bottom_out[8] 0.000123088
2 *528:X 0.000363733
3 *20:10 0.000486821
4 chany_bottom_out[8] left_grid_right_width_0_height_0_subtile_0__pin_I_1_ 0
5 *20:10 *21:13 0
6 *20:10 *40:10 2.93747e-05
7 *20:10 *150:18 0
8 *20:10 *181:20 0.000146197
9 chany_bottom_out[7] chany_bottom_out[8] 5.48019e-05
*RES
1 *528:X *20:10 45.2396 
2 *20:10 chany_bottom_out[8] 8.50027 
*END

*D_NET *21 0.00460368
*CONN
*P chany_top_in[0] I
*I *502:A I *D sky130_fd_sc_hd__buf_1
*CAP
1 chany_top_in[0] 0.00158393
2 *502:A 0
3 *21:19 0.00031007
4 *21:13 0.001894
5 *21:13 *412:A 7.93848e-06
6 *21:13 *458:TE_B 0.000146641
7 *21:13 *458:Z 9.67842e-05
8 *21:13 *527:A 3.80641e-05
9 *21:13 *39:10 1.05658e-05
10 *21:13 *40:10 0
11 *21:13 *139:32 6.75974e-05
12 *21:13 *142:10 2.93747e-05
13 *21:13 *150:18 0
14 *21:19 *347:A 0
15 *21:19 *402:A 1.02387e-05
16 *21:19 *149:14 0.000104133
17 *21:19 *152:14 0.000110337
18 *21:19 *152:22 3.0647e-05
19 *21:19 *157:38 0.000163352
20 chany_bottom_out[7] *21:13 0
21 *18:10 *21:13 0
22 *20:10 *21:13 0
*RES
1 chany_top_in[0] *21:13 43.565 
2 *21:13 *21:19 36.4836 
3 *21:19 *502:A 23 
*END

*D_NET *22 0.00128606
*CONN
*P chany_top_in[1] I
*I *503:A I *D sky130_fd_sc_hd__buf_1
*CAP
1 chany_top_in[1] 0.000572502
2 *503:A 0.000572502
3 *503:A *39:10 0.000141052
4 *503:A *40:10 0
5 *503:A *41:10 0
*RES
1 chany_top_in[1] *503:A 49.8486 
*END

*D_NET *23 0.00123851
*CONN
*P chany_top_in[2] I
*I *504:A I *D sky130_fd_sc_hd__buf_1
*CAP
1 chany_top_in[2] 0.000523942
2 *504:A 0.000523942
3 *504:A *41:10 0
4 *504:A *152:12 0.00019063
5 *504:A *182:18 0
*RES
1 chany_top_in[2] *504:A 49.6621 
*END

*D_NET *24 0.00109927
*CONN
*P chany_top_in[3] I
*I *505:A I *D sky130_fd_sc_hd__buf_1
*CAP
1 chany_top_in[3] 0.000485415
2 *505:A 0.000485415
3 *505:A *347:A 0
4 *505:A *152:12 5.56356e-05
5 *505:A *182:18 7.28029e-05
*RES
1 chany_top_in[3] *505:A 48.4193 
*END

*D_NET *25 0.00100697
*CONN
*P chany_top_in[4] I
*I *506:A I *D sky130_fd_sc_hd__buf_1
*CAP
1 chany_top_in[4] 0.000503483
2 *506:A 0
3 *25:17 0.000503483
*RES
1 chany_top_in[4] *25:17 27.2629 
2 *25:17 *506:A 23 
*END

*D_NET *26 0.00106977
*CONN
*P chany_top_in[5] I
*I *507:A I *D sky130_fd_sc_hd__clkbuf_1
*CAP
1 chany_top_in[5] 0.000491065
2 *507:A 0.000491065
3 *507:A *413:A 1.3523e-05
4 *507:A *156:10 7.41132e-05
*RES
1 chany_top_in[5] *507:A 48.5643 
*END

*D_NET *27 0.00103213
*CONN
*P chany_top_in[6] I
*I *508:A I *D sky130_fd_sc_hd__buf_1
*CAP
1 chany_top_in[6] 0.000499922
2 *508:A 0.000499922
3 *508:A *156:10 3.22879e-05
*RES
1 chany_top_in[6] *508:A 48.7093 
*END

*D_NET *28 0.00083935
*CONN
*P chany_top_in[7] I
*I *509:A I *D sky130_fd_sc_hd__clkbuf_1
*CAP
1 chany_top_in[7] 0.000419675
2 *509:A 0.000419675
3 *2:10 *509:A 0
*RES
1 chany_top_in[7] *509:A 46.845 
*END

*D_NET *29 0.00183347
*CONN
*P chany_top_in[8] I
*I *510:A I *D sky130_fd_sc_hd__buf_1
*CAP
1 chany_top_in[8] 0.000848738
2 *510:A 0
3 *29:13 0.000848738
4 *29:13 *159:35 5.90675e-06
5 *1:23 *29:13 0.000130086
6 *2:10 *29:13 0
*RES
1 chany_top_in[8] *29:13 32.0686 
2 *29:13 *510:A 23 
*END

*D_NET *30 0.00122631
*CONN
*P chany_top_out[0] O
*I *529:X O *D sky130_fd_sc_hd__clkbuf_4
*CAP
1 chany_top_out[0] 0.000197482
2 *529:X 0.000415671
3 *30:10 0.000613153
4 chany_top_out[0] chany_top_out[1] 0
5 *11:11 *30:10 0
*RES
1 *529:X *30:10 45.9854 
2 *30:10 chany_top_out[0] 8.75787 
*END

*D_NET *31 0.00110842
*CONN
*P chany_top_out[1] O
*I *530:X O *D sky130_fd_sc_hd__buf_2
*CAP
1 chany_top_out[1] 0.00038759
2 *530:X 0.000128793
3 *31:10 0.000516383
4 chany_top_out[1] chany_top_out[2] 0
5 chany_top_out[0] chany_top_out[1] 0
6 *518:A *31:10 0
7 *11:11 *31:10 7.56584e-05
*RES
1 *530:X *31:10 49.1382 
2 *31:10 chany_top_out[1] 1.35893 
*END

*D_NET *32 0.00105269
*CONN
*P chany_top_out[2] O
*I *531:X O *D sky130_fd_sc_hd__clkbuf_4
*CAP
1 chany_top_out[2] 0.000495215
2 *531:X 0.000495215
3 chany_top_out[2] chany_top_out[3] 0
4 chany_top_out[2] *177:12 3.35885e-06
5 chany_top_out[2] *177:20 4.79209e-05
6 chany_top_out[1] chany_top_out[2] 0
7 *11:11 chany_top_out[2] 1.09783e-05
*RES
1 *531:X chany_top_out[2] 49.4257 
*END

*D_NET *33 0.00172108
*CONN
*P chany_top_out[3] O
*I *532:X O *D sky130_fd_sc_hd__buf_2
*CAP
1 chany_top_out[3] 0.000769176
2 *532:X 0.000769176
3 chany_top_out[3] chany_top_out[4] 0.000111235
4 chany_top_out[3] chany_top_out[5] 0
5 chany_top_out[3] *448:TE_B 6.10551e-06
6 chany_top_out[3] *57:16 0
7 chany_top_out[3] *106:44 6.53863e-05
8 chany_top_out[2] chany_top_out[3] 0
*RES
1 *532:X chany_top_out[3] 49.0109 
*END

*D_NET *34 0.00197263
*CONN
*P chany_top_out[4] O
*I *533:X O *D sky130_fd_sc_hd__clkbuf_4
*CAP
1 chany_top_out[4] 0.000279445
2 *533:X 0.000560807
3 *34:10 0.000840252
4 chany_top_out[4] chany_top_out[5] 0
5 *34:10 *422:CLK 1.09886e-05
6 *34:10 *172:14 5.37068e-05
7 *34:10 *177:20 0.000116198
8 chany_top_out[3] chany_top_out[4] 0.000111235
*RES
1 *533:X *34:10 47.2075 
2 *34:10 chany_top_out[4] 8.84373 
*END

*D_NET *35 0.00296397
*CONN
*P chany_top_out[5] O
*I *534:X O *D sky130_fd_sc_hd__clkbuf_4
*CAP
1 chany_top_out[5] 0.000369688
2 *534:X 0.000744717
3 *35:10 0.0011144
4 chany_top_out[5] chany_top_out[6] 0
5 *35:10 *378:A 0.000180224
6 *35:10 *448:Z 3.34247e-05
7 *35:10 *103:53 0.000102696
8 *35:10 *126:6 5.01469e-05
9 *35:10 *176:8 2.71492e-05
10 *35:10 *177:20 0.000108693
11 *35:10 *184:20 0.00023283
12 chany_top_out[3] chany_top_out[5] 0
13 chany_top_out[4] chany_top_out[5] 0
*RES
1 *534:X *35:10 49.8589 
2 *35:10 chany_top_out[5] 8.9296 
*END

*D_NET *36 0.000958255
*CONN
*P chany_top_out[6] O
*I *535:X O *D sky130_fd_sc_hd__buf_2
*CAP
1 chany_top_out[6] 0.000414021
2 *535:X 0.000414021
3 chany_top_out[6] chany_top_out[7] 0
4 chany_top_out[6] *184:20 0.000130212
5 chany_top_out[5] chany_top_out[6] 0
*RES
1 *535:X chany_top_out[6] 48.5734 
*END

*D_NET *37 0.000978157
*CONN
*P chany_top_out[7] O
*I *536:X O *D sky130_fd_sc_hd__buf_2
*CAP
1 chany_top_out[7] 0.000196658
2 *536:X 0.000282287
3 *37:12 0.000478944
4 chany_top_out[7] chany_top_out[8] 2.02683e-05
5 *37:12 *184:20 0
6 chany_top_out[6] chany_top_out[7] 0
*RES
1 *536:X *37:12 42.0496 
2 *37:12 chany_top_out[7] 8.6496 
*END

*D_NET *38 0.00089354
*CONN
*P chany_top_out[8] O
*I *537:X O *D sky130_fd_sc_hd__buf_2
*CAP
1 chany_top_out[8] 0.000405647
2 *537:X 0.000405647
3 chany_top_out[8] right_grid_left_width_0_height_0_subtile_0__pin_I_3_ 0
4 chany_top_out[8] *184:20 6.19771e-05
5 chany_top_out[7] chany_top_out[8] 2.02683e-05
*RES
1 *537:X chany_top_out[8] 48.5734 
*END

*D_NET *39 0.000885567
*CONN
*P left_grid_right_width_0_height_0_subtile_0__pin_I_1_ O
*I *538:X O *D sky130_fd_sc_hd__clkbuf_4
*CAP
1 left_grid_right_width_0_height_0_subtile_0__pin_I_1_ 0.000106052
2 *538:X 0.000260923
3 *39:10 0.000366975
4 left_grid_right_width_0_height_0_subtile_0__pin_I_1_ left_grid_right_width_0_height_0_subtile_0__pin_I_5_ 0
5 chany_bottom_out[8] left_grid_right_width_0_height_0_subtile_0__pin_I_1_ 0
6 *503:A *39:10 0.000141052
7 *21:13 *39:10 1.05658e-05
*RES
1 *538:X *39:10 42.7539 
2 *39:10 left_grid_right_width_0_height_0_subtile_0__pin_I_1_ 8.32853 
*END

*D_NET *40 0.0015343
*CONN
*P left_grid_right_width_0_height_0_subtile_0__pin_I_5_ O
*I *539:X O *D sky130_fd_sc_hd__clkbuf_4
*CAP
1 left_grid_right_width_0_height_0_subtile_0__pin_I_5_ 0.000373814
2 *539:X 0.000335505
3 *40:10 0.000709319
4 left_grid_right_width_0_height_0_subtile_0__pin_I_5_ left_grid_right_width_0_height_0_subtile_0__pin_I_9_ 0
5 *40:10 *150:18 8.62876e-05
6 left_grid_right_width_0_height_0_subtile_0__pin_I_1_ left_grid_right_width_0_height_0_subtile_0__pin_I_5_ 0
7 *503:A *40:10 0
8 *20:10 *40:10 2.93747e-05
9 *21:13 *40:10 0
*RES
1 *539:X *40:10 44.5768 
2 *40:10 left_grid_right_width_0_height_0_subtile_0__pin_I_5_ 9.42613 
*END

*D_NET *41 0.00239141
*CONN
*P left_grid_right_width_0_height_0_subtile_0__pin_I_9_ O
*I *540:X O *D sky130_fd_sc_hd__clkbuf_4
*CAP
1 left_grid_right_width_0_height_0_subtile_0__pin_I_9_ 0.000573992
2 *540:X 0.000527749
3 *41:10 0.00110174
4 *41:10 *402:A 8.94487e-05
5 *41:10 *182:18 9.84794e-05
6 left_grid_right_width_0_height_0_subtile_0__pin_I_5_ left_grid_right_width_0_height_0_subtile_0__pin_I_9_ 0
7 *503:A *41:10 0
8 *504:A *41:10 0
*RES
1 *540:X *41:10 48.9268 
2 *41:10 left_grid_right_width_0_height_0_subtile_0__pin_I_9_ 10.0459 
*END

*D_NET *42 0.00786754
*CONN
*P prog_clk I
*I *486:A I *D sky130_fd_sc_hd__clkbuf_16
*CAP
1 prog_clk 0.00193953
2 *486:A 0
3 *42:17 0.000959206
4 *42:13 0.00289874
5 *42:13 *408:A 0.00022644
6 *42:13 *127:12 1.08287e-05
7 *42:13 *149:42 1.83123e-05
8 *42:13 *150:38 5.94125e-05
9 *42:13 *158:10 0.000185428
10 *42:13 *160:22 8.4047e-05
11 *42:13 *161:10 2.24973e-05
12 *42:17 *373:A 3.36638e-05
13 *42:17 *53:8 8.85189e-05
14 *42:17 *80:12 0.000322892
15 *42:17 *84:12 2.3529e-05
16 *42:17 *91:12 0.000199701
17 *42:17 *109:10 0.000174417
18 *42:17 *130:16 0
19 *42:17 *191:22 0.000225611
20 *42:17 *202:8 0.000163361
21 chany_bottom_out[0] *42:13 0
22 *513:A *42:13 0.000108603
23 *4:13 *42:13 0.0001228
*RES
1 prog_clk *42:13 45.7912 
2 *42:13 *42:17 36.2736 
3 *42:17 *486:A 38 
*END

*D_NET *43 0.00076078
*CONN
*P right_grid_left_width_0_height_0_subtile_0__pin_I_3_ O
*I *541:X O *D sky130_fd_sc_hd__clkbuf_4
*CAP
1 right_grid_left_width_0_height_0_subtile_0__pin_I_3_ 0.00037608
2 *541:X 0.00037608
3 right_grid_left_width_0_height_0_subtile_0__pin_I_3_ right_grid_left_width_0_height_0_subtile_0__pin_I_7_ 0
4 right_grid_left_width_0_height_0_subtile_0__pin_I_3_ *184:20 8.62073e-06
5 chany_top_out[8] right_grid_left_width_0_height_0_subtile_0__pin_I_3_ 0
*RES
1 *541:X right_grid_left_width_0_height_0_subtile_0__pin_I_3_ 47.7004 
*END

*D_NET *44 0.000870552
*CONN
*P right_grid_left_width_0_height_0_subtile_0__pin_I_7_ O
*I *542:X O *D sky130_fd_sc_hd__buf_2
*CAP
1 right_grid_left_width_0_height_0_subtile_0__pin_I_7_ 0.00038402
2 *542:X 0.00038402
3 right_grid_left_width_0_height_0_subtile_0__pin_I_7_ *159:35 0
4 right_grid_left_width_0_height_0_subtile_0__pin_I_3_ right_grid_left_width_0_height_0_subtile_0__pin_I_7_ 0
5 *1:23 right_grid_left_width_0_height_0_subtile_0__pin_I_7_ 0.000102513
*RES
1 *542:X right_grid_left_width_0_height_0_subtile_0__pin_I_7_ 47.5169 
*END

*D_NET *47 0.000722289
*CONN
*I *356:A I *D sky130_fd_sc_hd__clkbuf_1
*I *355:X O *D sky130_fd_sc_hd__clkbuf_1
*CAP
1 *356:A 0.000115066
2 *355:X 0.000134788
3 *47:10 0.000249853
4 *356:A *421:CLK 3.2311e-05
5 *356:A *474:A 7.83367e-06
6 *356:A *107:56 0
7 *47:10 *470:A 8.29264e-05
8 *47:10 *470:TE_B 9.95111e-05
9 *47:10 *107:56 0
*RES
1 *355:X *47:10 40.2993 
2 *47:10 *356:A 39.9471 
*END

*D_NET *48 0.000174395
*CONN
*I *358:A I *D sky130_fd_sc_hd__clkbuf_1
*I *357:X O *D sky130_fd_sc_hd__clkbuf_1
*CAP
1 *358:A 3.58453e-05
2 *357:X 3.58453e-05
3 *358:A *357:A 5.15308e-05
4 *358:A *471:TE_B 1.89688e-05
5 *358:A *487:A 3.22051e-05
*RES
1 *357:X *358:A 47.4707 
*END

*D_NET *49 0.000507617
*CONN
*I *363:A I *D sky130_fd_sc_hd__clkbuf_1
*I *362:X O *D sky130_fd_sc_hd__clkbuf_1
*CAP
1 *363:A 0.000155345
2 *362:X 0.000155345
3 *363:A *362:A 0.00010018
4 *363:A *469:TE_B 3.23857e-06
5 *363:A *82:10 1.3523e-05
6 *363:A *88:10 2.49801e-05
7 *363:A *109:42 5.50049e-05
*RES
1 *362:X *363:A 49.5214 
*END

*D_NET *50 0.00155547
*CONN
*I *365:A I *D sky130_fd_sc_hd__clkbuf_1
*I *364:X O *D sky130_fd_sc_hd__clkbuf_1
*CAP
1 *365:A 0
2 *364:X 0.000455597
3 *50:10 0.000455597
4 *50:10 *463:Z 5.3304e-05
5 *50:10 *79:14 0.000355287
6 *50:10 *110:31 5.79559e-05
7 *50:10 *110:38 0.000177731
*RES
1 *364:X *50:10 31.7621 
2 *50:10 *365:A 23 
*END

*D_NET *51 0.000831663
*CONN
*I *368:A I *D sky130_fd_sc_hd__clkbuf_1
*I *367:X O *D sky130_fd_sc_hd__clkbuf_1
*CAP
1 *368:A 0
2 *367:X 0.000371333
3 *51:8 0.000371333
4 *51:8 *132:10 7.89883e-05
5 *51:8 *151:22 1.00084e-05
6 *51:8 *151:38 0
7 *51:8 *152:22 0
*RES
1 *367:X *51:8 43.075 
2 *51:8 *368:A 38 
*END

*D_NET *52 0.000632133
*CONN
*I *370:A I *D sky130_fd_sc_hd__clkbuf_1
*I *369:X O *D sky130_fd_sc_hd__clkbuf_1
*CAP
1 *370:A 0
2 *369:X 0.000188383
3 *52:10 0.000188383
4 *52:10 *369:A 3.7122e-06
5 *52:10 *150:18 8.51329e-05
6 *52:10 *151:38 0.000166522
*RES
1 *369:X *52:10 41.3557 
2 *52:10 *370:A 38 
*END

*D_NET *53 0.00123202
*CONN
*I *374:A I *D sky130_fd_sc_hd__clkbuf_1
*I *373:X O *D sky130_fd_sc_hd__clkbuf_1
*CAP
1 *374:A 0.000223157
2 *373:X 3.66812e-05
3 *53:8 0.000259838
4 *374:A *372:A 5.56356e-05
5 *374:A *403:A 0
6 *374:A *80:12 0.000251753
7 *374:A *84:12 3.91386e-05
8 *374:A *86:10 4.94227e-05
9 *374:A *109:14 0.000139352
10 *53:8 *84:12 8.85189e-05
11 *42:17 *53:8 8.85189e-05
*RES
1 *373:X *53:8 39.2014 
2 *53:8 *374:A 43.7793 
*END

*D_NET *54 0.000967237
*CONN
*I *376:A I *D sky130_fd_sc_hd__clkbuf_1
*I *375:X O *D sky130_fd_sc_hd__clkbuf_1
*CAP
1 *376:A 0
2 *375:X 0.000292079
3 *54:10 0.000292079
4 *54:10 *490:A 0
5 *54:10 *110:38 3.66555e-05
6 *54:10 *149:20 0.000346423
*RES
1 *375:X *54:10 43.8207 
2 *54:10 *376:A 38 
*END

*D_NET *55 0.00105924
*CONN
*I *381:A I *D sky130_fd_sc_hd__clkbuf_1
*I *380:X O *D sky130_fd_sc_hd__clkbuf_1
*CAP
1 *381:A 0
2 *380:X 0.000180384
3 *55:10 0.000180384
4 *55:10 *380:A 0.000416336
5 *55:10 *445:TE_B 5.50106e-05
6 *55:10 *451:A 3.22879e-05
7 *55:10 *451:TE_B 0.000194838
*RES
1 *380:X *55:10 29.38 
2 *55:10 *381:A 23 
*END

*D_NET *56 0.00164358
*CONN
*I *384:A I *D sky130_fd_sc_hd__clkbuf_1
*I *383:X O *D sky130_fd_sc_hd__clkbuf_1
*CAP
1 *384:A 0
2 *383:X 0.000286573
3 *56:8 0.000286573
4 *56:8 *449:A 0.000141052
5 *56:8 *449:TE_B 4.94033e-05
6 *56:8 *499:A 3.85196e-05
7 *56:8 *104:35 5.04369e-05
8 *56:8 *155:16 0.000663975
9 *56:8 *199:14 0.000127045
*RES
1 *383:X *56:8 33.0464 
2 *56:8 *384:A 23 
*END

*D_NET *57 0.00350354
*CONN