*SPEF "ieee 1481-1999"
*DESIGN "grid_io_top"
*DATE "11:11:11 Fri 11 11, 1111"
*VENDOR "OpenRCX"
*PROGRAM "Parallel Extraction"
*VERSION "1.0"
*DESIGN_FLOW "NAME_SCOPE LOCAL" "PIN_CAP NONE"
*DIVIDER /
*DELIMITER :
*BUS_DELIMITER []
*T_UNIT 1 NS
*C_UNIT 1 PF
*R_UNIT 1 OHM
*L_UNIT 1 HENRY

*NAME_MAP
*1 bottom_width_0_height_0_subtile_0__pin_inpad_0_
*2 bottom_width_0_height_0_subtile_0__pin_outpad_0_
*3 ccff_head
*4 ccff_tail
*5 gfpga_pad_GPIO_PAD
*6 prog_clk
*9 net1
*10 net2
*11 net3
*12 net4
*13 FILLER_0_0_15
*14 FILLER_0_0_27
*15 FILLER_0_0_29
*16 FILLER_0_0_3
*17 FILLER_0_10_15
*18 FILLER_0_10_27
*19 FILLER_0_10_29
*20 FILLER_0_10_3
*21 FILLER_0_10_37
*22 FILLER_0_11_15
*23 FILLER_0_11_24
*24 FILLER_0_11_29
*25 FILLER_0_11_3
*26 FILLER_0_11_37
*27 FILLER_0_1_15
*28 FILLER_0_1_27
*29 FILLER_0_1_3
*30 FILLER_0_1_35
*31 FILLER_0_2_15
*32 FILLER_0_2_27
*33 FILLER_0_2_29
*34 FILLER_0_2_3
*35 FILLER_0_2_37
*36 FILLER_0_3_15
*37 FILLER_0_3_21
*38 FILLER_0_3_3
*39 FILLER_0_4_15
*40 FILLER_0_4_27
*41 FILLER_0_4_29
*42 FILLER_0_4_3
*43 FILLER_0_4_33
*44 FILLER_0_5_15
*45 FILLER_0_5_27
*46 FILLER_0_5_3
*47 FILLER_0_5_35
*48 FILLER_0_6_15
*49 FILLER_0_6_27
*50 FILLER_0_6_29
*51 FILLER_0_6_3
*52 FILLER_0_6_37
*53 FILLER_0_7_15
*54 FILLER_0_7_27
*55 FILLER_0_7_3
*56 FILLER_0_7_35
*57 FILLER_0_8_15
*58 FILLER_0_8_27
*59 FILLER_0_8_29
*60 FILLER_0_8_3
*61 FILLER_0_8_37
*62 FILLER_0_9_15
*63 FILLER_0_9_27
*64 FILLER_0_9_3
*65 PHY_0
*66 PHY_1
*67 PHY_10
*68 PHY_11
*69 PHY_12
*70 PHY_13
*71 PHY_14
*72 PHY_15
*73 PHY_16
*74 PHY_17
*75 PHY_18
*76 PHY_19
*77 PHY_2
*78 PHY_20
*79 PHY_21
*80 PHY_22
*81 PHY_23
*82 PHY_3
*83 PHY_4
*84 PHY_5
*85 PHY_6
*86 PHY_7
*87 PHY_8
*88 PHY_9
*89 TAP_24
*90 TAP_25
*91 TAP_26
*92 TAP_27
*93 TAP_28
*94 TAP_29
*95 TAP_30
*96 _0_
*97 _1_
*98 input1
*99 input2
*100 output3
*101 output4

*PORTS
bottom_width_0_height_0_subtile_0__pin_inpad_0_ O
bottom_width_0_height_0_subtile_0__pin_outpad_0_ I
ccff_head I
ccff_tail O
gfpga_pad_GPIO_PAD I
prog_clk I

*D_NET *1 0.000986398
*CONN
*P bottom_width_0_height_0_subtile_0__pin_inpad_0_ O
*I *100:X O *D sky130_fd_sc_hd__clkbuf_4
*CAP
1 bottom_width_0_height_0_subtile_0__pin_inpad_0_ 0.000493199
2 *100:X 0.000493199
*RES
1 *100:X bottom_width_0_height_0_subtile_0__pin_inpad_0_ 49.8042 
*END

*D_NET *3 0.000951822
*CONN
*P ccff_head I
*I *98:A I *D sky130_fd_sc_hd__clkbuf_1
*CAP
1 ccff_head 0.000475911
2 *98:A 0
3 *3:15 0.000475911
*RES
1 ccff_head *3:15 31.5564 
2 *3:15 *98:A 23 
*END

*D_NET *4 0.0011247
*CONN
*P ccff_tail O
*I *101:X O *D sky130_fd_sc_hd__buf_2
*CAP
1 ccff_tail 0.000542403
2 *101:X 0.000542403
3 ccff_tail *12:8 3.98887e-05
*RES
1 *101:X ccff_tail 48.5734 
*END

*D_NET *5 0.00118694
*CONN
*P gfpga_pad_GPIO_PAD I
*I *99:A I *D sky130_fd_sc_hd__clkbuf_1
*CAP
1 gfpga_pad_GPIO_PAD 0.000591051
2 *99:A 0
3 *5:19 0.000591051
4 *5:19 *10:14 4.84129e-06
*RES
1 gfpga_pad_GPIO_PAD *5:19 29.065 
2 *5:19 *99:A 23 
*END

*D_NET *6 0.00582092
*CONN
*P prog_clk I
*I *96:CLK I *D sky130_fd_sc_hd__dfxtp_1
*CAP
1 prog_clk 0.00279404
2 *96:CLK 0
3 *6:25 0.00279404
4 *6:25 *96:D 0.000106735
5 *6:25 *10:14 0.000126098
*RES
1 prog_clk *6:25 49.3177 
2 *6:25 *96:CLK 23 
*END

*D_NET *9 0.00156781
*CONN
*I *96:D I *D sky130_fd_sc_hd__dfxtp_1
*I *98:X O *D sky130_fd_sc_hd__clkbuf_1
*CAP
1 *96:D 0.00021815
2 *98:X 0.000512388
3 *9:10 0.000730538
4 *6:25 *96:D 0.000106735
*RES
1 *98:X *9:10 46.99 
2 *9:10 *96:D 42.003 
*END

*D_NET *10 0.0012641
*CONN
*I *97:A I *D sky130_fd_sc_hd__clkbuf_1
*I *99:X O *D sky130_fd_sc_hd__clkbuf_1
*CAP
1 *97:A 0.000112457
2 *99:X 0.000454123
3 *10:14 0.00056658
4 *5:19 *10:14 4.84129e-06
5 *6:25 *10:14 0.000126098
*RES
1 *99:X *10:14 45.3121 
2 *10:14 *97:A 39.9471 
*END

*D_NET *11 0.000176748
*CONN
*I *100:A I *D sky130_fd_sc_hd__clkbuf_4
*I *97:X O *D sky130_fd_sc_hd__clkbuf_1
*CAP
1 *100:A 8.83741e-05
2 *97:X 8.83741e-05
*RES
1 *97:X *100:A 47.595 
*END

*D_NET *12 0.000223703
*CONN
*I *101:A I *D sky130_fd_sc_hd__buf_2
*I *96:Q O *D sky130_fd_sc_hd__dfxtp_1
*CAP
1 *101:A 0
2 *96:Q 9.19069e-05
3 *12:8 9.19069e-05
4 ccff_tail *12:8 3.98887e-05
*RES
1 *96:Q *12:8 39.9057 
2 *12:8 *101:A 38 
*END
