*SPEF "ieee 1481-1999"
*DESIGN "grid_io_right_out"
*DATE "11:11:11 Fri 11 11, 1111"
*VENDOR "OpenRCX"
*PROGRAM "Parallel Extraction"
*VERSION "1.0"
*DESIGN_FLOW "NAME_SCOPE LOCAL" "PIN_CAP NONE"
*DIVIDER /
*DELIMITER :
*BUS_DELIMITER []
*T_UNIT 1 NS
*C_UNIT 1 PF
*R_UNIT 1 OHM
*L_UNIT 1 HENRY

*NAME_MAP
*1 ccff_head
*2 ccff_tail
*3 gfpga_pad_GPIO_PAD
*4 net5
*5 left_width_0_height_0_subtile_0__pin_outpad_0_
*6 prog_clk
*9 net1
*10 net2
*11 net3
*12 net4
*13 FILLER_0_0_15
*14 FILLER_0_0_27
*15 FILLER_0_0_29
*16 FILLER_0_0_3
*17 FILLER_0_0_37
*18 FILLER_0_10_15
*19 FILLER_0_10_27
*20 FILLER_0_10_29
*21 FILLER_0_10_3
*22 FILLER_0_10_37
*23 FILLER_0_11_15
*24 FILLER_0_11_27
*25 FILLER_0_11_3
*26 FILLER_0_11_31
*27 FILLER_0_12_15
*28 FILLER_0_12_27
*29 FILLER_0_12_29
*30 FILLER_0_12_3
*31 FILLER_0_12_37
*32 FILLER_0_13_15
*33 FILLER_0_13_27
*34 FILLER_0_13_3
*35 FILLER_0_13_35
*36 FILLER_0_14_18
*37 FILLER_0_14_26
*38 FILLER_0_14_29
*39 FILLER_0_14_37
*40 FILLER_0_14_6
*41 FILLER_0_15_15
*42 FILLER_0_15_27
*43 FILLER_0_15_3
*44 FILLER_0_15_35
*45 FILLER_0_16_15
*46 FILLER_0_16_27
*47 FILLER_0_16_29
*48 FILLER_0_16_3
*49 FILLER_0_16_37
*50 FILLER_0_17_15
*51 FILLER_0_17_27
*52 FILLER_0_17_3
*53 FILLER_0_17_35
*54 FILLER_0_18_15
*55 FILLER_0_18_27
*56 FILLER_0_18_29
*57 FILLER_0_18_3
*58 FILLER_0_18_37
*59 FILLER_0_19_15
*60 FILLER_0_19_22
*61 FILLER_0_19_3
*62 FILLER_0_19_34
*63 FILLER_0_1_15
*64 FILLER_0_1_27
*65 FILLER_0_1_3
*66 FILLER_0_20_18
*67 FILLER_0_20_26
*68 FILLER_0_20_29
*69 FILLER_0_20_33
*70 FILLER_0_20_6
*71 FILLER_0_2_15
*72 FILLER_0_2_27
*73 FILLER_0_2_29
*74 FILLER_0_2_3
*75 FILLER_0_2_37
*76 FILLER_0_3_15
*77 FILLER_0_3_27
*78 FILLER_0_3_3
*79 FILLER_0_3_35
*80 FILLER_0_4_15
*81 FILLER_0_4_27
*82 FILLER_0_4_29
*83 FILLER_0_4_3
*84 FILLER_0_4_37
*85 FILLER_0_5_15
*86 FILLER_0_5_27
*87 FILLER_0_5_3
*88 FILLER_0_5_35
*89 FILLER_0_6_15
*90 FILLER_0_6_27
*91 FILLER_0_6_29
*92 FILLER_0_6_3
*93 FILLER_0_6_37
*94 FILLER_0_7_15
*95 FILLER_0_7_21
*96 FILLER_0_7_3
*97 FILLER_0_8_15
*98 FILLER_0_8_27
*99 FILLER_0_8_29
*100 FILLER_0_8_3
*101 FILLER_0_8_37
*102 FILLER_0_9_15
*103 FILLER_0_9_27
*104 FILLER_0_9_3
*105 FILLER_0_9_35
*106 PHY_0
*107 PHY_1
*108 PHY_10
*109 PHY_11
*110 PHY_12
*111 PHY_13
*112 PHY_14
*113 PHY_15
*114 PHY_16
*115 PHY_17
*116 PHY_18
*117 PHY_19
*118 PHY_2
*119 PHY_20
*120 PHY_21
*121 PHY_22
*122 PHY_23
*123 PHY_24
*124 PHY_25
*125 PHY_26
*126 PHY_27
*127 PHY_28
*128 PHY_29
*129 PHY_3
*130 PHY_30
*131 PHY_31
*132 PHY_32
*133 PHY_33
*134 PHY_34
*135 PHY_35
*136 PHY_36
*137 PHY_37
*138 PHY_38
*139 PHY_39
*140 PHY_4
*141 PHY_40
*142 PHY_41
*143 PHY_5
*144 PHY_6
*145 PHY_7
*146 PHY_8
*147 PHY_9
*148 TAP_42
*149 TAP_43
*150 TAP_44
*151 TAP_45
*152 TAP_46
*153 TAP_47
*154 TAP_48
*155 TAP_49
*156 TAP_50
*157 TAP_51
*158 TAP_52
*159 _0_
*160 _2_
*161 grid_io_right_out_5
*162 input1
*163 input2
*164 output3
*165 output4

*PORTS
ccff_head I
ccff_tail O
gfpga_pad_GPIO_PAD O
left_width_0_height_0_subtile_0__pin_inpad_0_ O
left_width_0_height_0_subtile_0__pin_outpad_0_ I
prog_clk I

*D_NET *1 0.00063232
*CONN
*P ccff_head I
*I *162:A I *D sky130_fd_sc_hd__clkbuf_1
*CAP
1 ccff_head 0.00031616
2 *162:A 0.00031616
*RES
1 ccff_head *162:A 20.5661 
*END

*D_NET *2 0.00101608
*CONN
*P ccff_tail O
*I *164:X O *D sky130_fd_sc_hd__clkbuf_4
*CAP
1 ccff_tail 0.000435085
2 *164:X 0.000435085
3 ccff_tail *164:A 0.000145908
*RES
1 *164:X ccff_tail 20.8888 
*END

*D_NET *3 0.000973228
*CONN
*P gfpga_pad_GPIO_PAD O
*I *165:X O *D sky130_fd_sc_hd__buf_2
*CAP
1 gfpga_pad_GPIO_PAD 0.000486614
2 *165:X 0.000486614
*RES
1 *165:X gfpga_pad_GPIO_PAD 18.8306 
*END

*D_NET *4 0.000564701
*CONN
*P left_width_0_height_0_subtile_0__pin_inpad_0_ O
*I *161:LO O *D sky130_fd_sc_hd__conb_1
*CAP
1 left_width_0_height_0_subtile_0__pin_inpad_0_ 0.00028235
2 *161:LO 0.00028235
*RES
1 *161:LO left_width_0_height_0_subtile_0__pin_inpad_0_ 18.73 
*END

*D_NET *5 0.000672347
*CONN
*P left_width_0_height_0_subtile_0__pin_outpad_0_ I
*I *163:A I *D sky130_fd_sc_hd__clkbuf_1
*CAP
1 left_width_0_height_0_subtile_0__pin_outpad_0_ 0.000336173
2 *163:A 0.000336173
*RES
1 left_width_0_height_0_subtile_0__pin_outpad_0_ *163:A 18.7335 
*END

*D_NET *6 0.00210317
*CONN
*P prog_clk I
*I *159:CLK I *D sky130_fd_sc_hd__dfxtp_1
*CAP
1 prog_clk 0.00105158
2 *159:CLK 0.00105158
*RES
1 prog_clk *159:CLK 19.6927 
*END

*D_NET *9 0.0022175
*CONN
*I *159:D I *D sky130_fd_sc_hd__dfxtp_1
*I *162:X O *D sky130_fd_sc_hd__clkbuf_1
*CAP
1 *159:D 0.00110875
2 *162:X 0.00110875
*RES
1 *162:X *159:D 46.0866 
*END

*D_NET *10 0.000976594
*CONN
*I *160:A I *D sky130_fd_sc_hd__clkbuf_1
*I *163:X O *D sky130_fd_sc_hd__clkbuf_1
*CAP
1 *160:A 0.000488297
2 *163:X 0.000488297
*RES
1 *163:X *160:A 35.2429 
*END

*D_NET *11 0.00135491
*CONN
*I *164:A I *D sky130_fd_sc_hd__clkbuf_4
*I *159:Q O *D sky130_fd_sc_hd__dfxtp_1
*CAP
1 *164:A 0.000604499
2 *159:Q 0.000604499
3 ccff_tail *164:A 0.000145908
*RES
1 *159:Q *164:A 38.3143 
*END

*D_NET *12 0.00119933
*CONN
*I *165:A I *D sky130_fd_sc_hd__buf_2
*I *160:X O *D sky130_fd_sc_hd__clkbuf_1
*CAP
1 *165:A 0.000599665
2 *160:X 0.000599665
*RES
1 *160:X *165:A 34.7071 
*END
