*SPEF "ieee 1481-1999"
*DESIGN "grid_io_bottom_out"
*DATE "11:11:11 Fri 11 11, 1111"
*VENDOR "OpenRCX"
*PROGRAM "Parallel Extraction"
*VERSION "1.0"
*DESIGN_FLOW "NAME_SCOPE LOCAL" "PIN_CAP NONE"
*DIVIDER /
*DELIMITER :
*BUS_DELIMITER []
*T_UNIT 1 NS
*C_UNIT 1 PF
*R_UNIT 1 OHM
*L_UNIT 1 HENRY

*NAME_MAP
*1 ccff_head
*2 ccff_tail
*3 gfpga_pad_GPIO_PAD
*4 prog_clk
*5 net5
*6 top_width_0_height_0_subtile_0__pin_outpad_0_
*9 net1
*10 net2
*11 net3
*12 net4
*13 FILLER_0_0_15
*14 FILLER_0_0_27
*15 FILLER_0_0_29
*16 FILLER_0_0_3
*17 FILLER_0_0_37
*18 FILLER_0_10_15
*19 FILLER_0_10_27
*20 FILLER_0_10_29
*21 FILLER_0_10_3
*22 FILLER_0_10_37
*23 FILLER_0_11_15
*24 FILLER_0_11_21
*25 FILLER_0_11_3
*26 FILLER_0_12_15
*27 FILLER_0_12_27
*28 FILLER_0_12_3
*29 FILLER_0_12_32
*30 FILLER_0_13_18
*31 FILLER_0_13_24
*32 FILLER_0_13_29
*33 FILLER_0_13_6
*34 FILLER_0_1_15
*35 FILLER_0_1_27
*36 FILLER_0_1_3
*37 FILLER_0_2_15
*38 FILLER_0_2_27
*39 FILLER_0_2_29
*40 FILLER_0_2_3
*41 FILLER_0_2_37
*42 FILLER_0_3_15
*43 FILLER_0_3_27
*44 FILLER_0_3_3
*45 FILLER_0_3_35
*46 FILLER_0_4_15
*47 FILLER_0_4_27
*48 FILLER_0_4_29
*49 FILLER_0_4_3
*50 FILLER_0_4_37
*51 FILLER_0_5_15
*52 FILLER_0_5_27
*53 FILLER_0_5_3
*54 FILLER_0_5_35
*55 FILLER_0_6_15
*56 FILLER_0_6_27
*57 FILLER_0_6_29
*58 FILLER_0_6_3
*59 FILLER_0_6_37
*60 FILLER_0_7_15
*61 FILLER_0_7_27
*62 FILLER_0_7_3
*63 FILLER_0_7_35
*64 FILLER_0_8_15
*65 FILLER_0_8_27
*66 FILLER_0_8_29
*67 FILLER_0_8_3
*68 FILLER_0_8_37
*69 FILLER_0_9_15
*70 FILLER_0_9_27
*71 FILLER_0_9_3
*72 FILLER_0_9_35
*73 PHY_0
*74 PHY_1
*75 PHY_10
*76 PHY_11
*77 PHY_12
*78 PHY_13
*79 PHY_14
*80 PHY_15
*81 PHY_16
*82 PHY_17
*83 PHY_18
*84 PHY_19
*85 PHY_2
*86 PHY_20
*87 PHY_21
*88 PHY_22
*89 PHY_23
*90 PHY_24
*91 PHY_25
*92 PHY_26
*93 PHY_27
*94 PHY_3
*95 PHY_4
*96 PHY_5
*97 PHY_6
*98 PHY_7
*99 PHY_8
*100 PHY_9
*101 TAP_28
*102 TAP_29
*103 TAP_30
*104 TAP_31
*105 TAP_32
*106 TAP_33
*107 TAP_34
*108 TAP_35
*109 _0_
*110 _2_
*111 grid_io_bottom_out_5
*112 input1
*113 input2
*114 output3
*115 output4

*PORTS
ccff_head I
ccff_tail O
gfpga_pad_GPIO_PAD O
prog_clk I
top_width_0_height_0_subtile_0__pin_inpad_0_ O
top_width_0_height_0_subtile_0__pin_outpad_0_ I

*D_NET *1 0.000580251
*CONN
*P ccff_head I
*I *112:A I *D sky130_fd_sc_hd__clkbuf_1
*CAP
1 ccff_head 0.000290126
2 *112:A 0.000290126
*RES
1 ccff_head *112:A 6.91043 
*END

*D_NET *2 0.000948125
*CONN
*P ccff_tail O
*I *114:X O *D sky130_fd_sc_hd__buf_2
*CAP
1 ccff_tail 0.00047198
2 *114:X 0.00047198
3 ccff_tail *115:A 4.1652e-06
*RES
1 *114:X ccff_tail 5.48683 
*END

*D_NET *3 0.000919344
*CONN
*P gfpga_pad_GPIO_PAD O
*I *115:X O *D sky130_fd_sc_hd__clkbuf_4
*CAP
1 gfpga_pad_GPIO_PAD 0.000459672
2 *115:X 0.000459672
*RES
1 *115:X gfpga_pad_GPIO_PAD 12.57 
*END

*D_NET *4 0.00157214
*CONN
*P prog_clk I
*I *109:CLK I *D sky130_fd_sc_hd__dfxtp_1
*CAP
1 prog_clk 0.000786072
2 *109:CLK 0.000786072
*RES
1 prog_clk *109:CLK 11.9533 
*END

*D_NET *5 0.000907851
*CONN
*P top_width_0_height_0_subtile_0__pin_inpad_0_ O
*I *111:LO O *D sky130_fd_sc_hd__conb_1
*CAP
1 top_width_0_height_0_subtile_0__pin_inpad_0_ 0.000453926
2 *111:LO 0.000453926
*RES
1 *111:LO top_width_0_height_0_subtile_0__pin_inpad_0_ 11.385 
*END

*D_NET *6 0.0010011
*CONN
*P top_width_0_height_0_subtile_0__pin_outpad_0_ I
*I *113:A I *D sky130_fd_sc_hd__clkbuf_1
*CAP
1 top_width_0_height_0_subtile_0__pin_outpad_0_ 0.00049823
2 *113:A 0.00049823
3 *113:A *110:A 4.6368e-06
*RES
1 top_width_0_height_0_subtile_0__pin_outpad_0_ *113:A 13.275 
*END

*D_NET *9 0.00303699
*CONN
*I *109:D I *D sky130_fd_sc_hd__dfxtp_1
*I *112:X O *D sky130_fd_sc_hd__clkbuf_1
*CAP
1 *109:D 0.0015185
2 *112:X 0.0015185
*RES
1 *112:X *109:D 30.8888 
*END

*D_NET *10 0.000648069
*CONN
*I *110:A I *D sky130_fd_sc_hd__clkbuf_1
*I *113:X O *D sky130_fd_sc_hd__clkbuf_1
*CAP
1 *110:A 0.000321716
2 *113:X 0.000321716
3 *113:A *110:A 4.6368e-06
*RES
1 *113:X *110:A 11.115 
*END

*D_NET *11 0.00017779
*CONN
*I *114:A I *D sky130_fd_sc_hd__buf_2
*I *109:Q O *D sky130_fd_sc_hd__dfxtp_1
*CAP
1 *114:A 8.88952e-05
2 *109:Q 8.88952e-05
*RES
1 *109:Q *114:A 8.58 
*END

*D_NET *12 0.000371529
*CONN
*I *115:A I *D sky130_fd_sc_hd__clkbuf_4
*I *110:X O *D sky130_fd_sc_hd__clkbuf_1
*CAP
1 *115:A 0.000183682
2 *110:X 0.000183682
3 ccff_tail *115:A 4.1652e-06
*RES
1 *110:X *115:A 9.63 
*END
