*SPEF "ieee 1481-1999"
*DESIGN "grid_io_right"
*DATE "11:11:11 Fri 11 11, 1111"
*VENDOR "OpenRCX"
*PROGRAM "Parallel Extraction"
*VERSION "1.0"
*DESIGN_FLOW "NAME_SCOPE LOCAL" "PIN_CAP NONE"
*DIVIDER /
*DELIMITER :
*BUS_DELIMITER []
*T_UNIT 1 NS
*C_UNIT 1 PF
*R_UNIT 1 OHM
*L_UNIT 1 HENRY

*NAME_MAP
*1 ccff_head
*2 ccff_tail
*3 gfpga_pad_GPIO_PAD
*4 left_width_0_height_0_subtile_0__pin_inpad_0_
*5 left_width_0_height_0_subtile_0__pin_outpad_0_
*6 prog_clk
*9 net1
*10 net2
*11 net3
*12 net4
*13 FILLER_0_0_15
*14 FILLER_0_0_27
*15 FILLER_0_0_29
*16 FILLER_0_0_3
*17 FILLER_0_0_37
*18 FILLER_0_10_15
*19 FILLER_0_10_27
*20 FILLER_0_10_29
*21 FILLER_0_10_3
*22 FILLER_0_10_37
*23 FILLER_0_11_15
*24 FILLER_0_11_27
*25 FILLER_0_11_3
*26 FILLER_0_11_31
*27 FILLER_0_12_15
*28 FILLER_0_12_27
*29 FILLER_0_12_29
*30 FILLER_0_12_3
*31 FILLER_0_12_37
*32 FILLER_0_13_15
*33 FILLER_0_13_27
*34 FILLER_0_13_3
*35 FILLER_0_13_35
*36 FILLER_0_14_21
*37 FILLER_0_14_27
*38 FILLER_0_14_29
*39 FILLER_0_14_37
*40 FILLER_0_14_9
*41 FILLER_0_15_15
*42 FILLER_0_15_21
*43 FILLER_0_15_3
*44 FILLER_0_15_33
*45 FILLER_0_15_37
*46 FILLER_0_16_15
*47 FILLER_0_16_27
*48 FILLER_0_16_29
*49 FILLER_0_16_3
*50 FILLER_0_16_37
*51 FILLER_0_17_15
*52 FILLER_0_17_27
*53 FILLER_0_17_3
*54 FILLER_0_17_35
*55 FILLER_0_18_15
*56 FILLER_0_18_27
*57 FILLER_0_18_29
*58 FILLER_0_18_3
*59 FILLER_0_18_37
*60 FILLER_0_19_15
*61 FILLER_0_19_27
*62 FILLER_0_19_3
*63 FILLER_0_19_35
*64 FILLER_0_1_15
*65 FILLER_0_1_27
*66 FILLER_0_1_3
*67 FILLER_0_20_15
*68 FILLER_0_20_27
*69 FILLER_0_20_29
*70 FILLER_0_20_3
*71 FILLER_0_2_15
*72 FILLER_0_2_27
*73 FILLER_0_2_29
*74 FILLER_0_2_3
*75 FILLER_0_2_37
*76 FILLER_0_3_15
*77 FILLER_0_3_27
*78 FILLER_0_3_3
*79 FILLER_0_3_35
*80 FILLER_0_4_15
*81 FILLER_0_4_27
*82 FILLER_0_4_29
*83 FILLER_0_4_3
*84 FILLER_0_4_37
*85 FILLER_0_5_15
*86 FILLER_0_5_27
*87 FILLER_0_5_3
*88 FILLER_0_5_35
*89 FILLER_0_6_15
*90 FILLER_0_6_27
*91 FILLER_0_6_29
*92 FILLER_0_6_3
*93 FILLER_0_6_37
*94 FILLER_0_7_15
*95 FILLER_0_7_21
*96 FILLER_0_7_3
*97 FILLER_0_8_15
*98 FILLER_0_8_27
*99 FILLER_0_8_29
*100 FILLER_0_8_3
*101 FILLER_0_8_37
*102 FILLER_0_9_15
*103 FILLER_0_9_27
*104 FILLER_0_9_3
*105 FILLER_0_9_35
*106 PHY_0
*107 PHY_1
*108 PHY_10
*109 PHY_11
*110 PHY_12
*111 PHY_13
*112 PHY_14
*113 PHY_15
*114 PHY_16
*115 PHY_17
*116 PHY_18
*117 PHY_19
*118 PHY_2
*119 PHY_20
*120 PHY_21
*121 PHY_22
*122 PHY_23
*123 PHY_24
*124 PHY_25
*125 PHY_26
*126 PHY_27
*127 PHY_28
*128 PHY_29
*129 PHY_3
*130 PHY_30
*131 PHY_31
*132 PHY_32
*133 PHY_33
*134 PHY_34
*135 PHY_35
*136 PHY_36
*137 PHY_37
*138 PHY_38
*139 PHY_39
*140 PHY_4
*141 PHY_40
*142 PHY_41
*143 PHY_5
*144 PHY_6
*145 PHY_7
*146 PHY_8
*147 PHY_9
*148 TAP_42
*149 TAP_43
*150 TAP_44
*151 TAP_45
*152 TAP_46
*153 TAP_47
*154 TAP_48
*155 TAP_49
*156 TAP_50
*157 TAP_51
*158 TAP_52
*159 _0_
*160 _1_
*161 input1
*162 input2
*163 output3
*164 output4

*PORTS
ccff_head I
ccff_tail O
gfpga_pad_GPIO_PAD I
left_width_0_height_0_subtile_0__pin_inpad_0_ O
left_width_0_height_0_subtile_0__pin_outpad_0_ I
prog_clk I

*D_NET *1 0.000701833
*CONN
*P ccff_head I
*I *161:A I *D sky130_fd_sc_hd__clkbuf_1
*CAP
1 ccff_head 0.000350917
2 *161:A 0.000350917
*RES
1 ccff_head *161:A 49.9017 
*END

*D_NET *2 0.00115835
*CONN
*P ccff_tail O
*I *163:X O *D sky130_fd_sc_hd__clkbuf_4
*CAP
1 ccff_tail 0.000251783
2 *163:X 0.00024816
3 *2:12 0.000499943
4 *2:12 *163:A 3.23131e-05
5 *2:12 *11:10 0.000126151
*RES
1 *163:X *2:12 49.7804 
2 *2:12 ccff_tail 0.500267 
*END

*D_NET *3 0.000923091
*CONN
*P gfpga_pad_GPIO_PAD I
*I *162:A I *D sky130_fd_sc_hd__clkbuf_1
*CAP
1 gfpga_pad_GPIO_PAD 0.000461546
2 *162:A 0.000461546
*RES
1 gfpga_pad_GPIO_PAD *162:A 49.6791 
*END

*D_NET *4 0.000587638
*CONN
*P left_width_0_height_0_subtile_0__pin_inpad_0_ O
*I *164:X O *D sky130_fd_sc_hd__clkbuf_4
*CAP
1 left_width_0_height_0_subtile_0__pin_inpad_0_ 0.000293819
2 *164:X 0.000293819
*RES
1 *164:X left_width_0_height_0_subtile_0__pin_inpad_0_ 47.4311 
*END

*D_NET *6 0.00243222
*CONN
*P prog_clk I
*I *159:CLK I *D sky130_fd_sc_hd__dfxtp_1
*CAP
1 prog_clk 0.00121611
2 *159:CLK 0.00121611
*RES
1 prog_clk *159:CLK 48.9493 
*END

*D_NET *9 0.00240801
*CONN
*I *159:D I *D sky130_fd_sc_hd__dfxtp_1
*I *161:X O *D sky130_fd_sc_hd__clkbuf_1
*CAP
1 *159:D 0
2 *161:X 9.94134e-05
3 *9:14 0.00110459
4 *9:8 0.00120401
*RES
1 *161:X *9:8 39.0979 
2 *9:8 *9:14 35.3466 
3 *9:14 *159:D 23 
*END

*D_NET *10 0.00250423
*CONN
*I *160:A I *D sky130_fd_sc_hd__clkbuf_1
*I *162:X O *D sky130_fd_sc_hd__clkbuf_1
*CAP
1 *160:A 0
2 *162:X 0.000293524
3 *10:16 0.00095859
4 *10:8 0.00125211
*RES
1 *162:X *10:8 41.48 
2 *10:8 *10:16 32.2757 
3 *10:16 *160:A 23 
*END

*D_NET *11 0.00148852
*CONN
*I *163:A I *D sky130_fd_sc_hd__clkbuf_4
*I *159:Q O *D sky130_fd_sc_hd__dfxtp_1
*CAP
1 *163:A 5.62158e-05
2 *159:Q 0.000608811
3 *11:10 0.000665027
4 *2:12 *163:A 3.23131e-05
5 *2:12 *11:10 0.000126151
*RES
1 *159:Q *11:10 49.3307 
2 *11:10 *163:A 39.0979 
*END

*D_NET *12 0.000903577
*CONN
*I *164:A I *D sky130_fd_sc_hd__clkbuf_4
*I *160:X O *D sky130_fd_sc_hd__clkbuf_1
*CAP
1 *164:A 0.000324101
2 *160:X 0.000127687
3 *12:8 0.000451789
*RES
1 *160:X *12:8 40.2579 
2 *12:8 *164:A 43.3857 
*END
