*SPEF "ieee 1481-1999"
*DESIGN "grid_clb"
*DATE "11:11:11 Fri 11 11, 1111"
*VENDOR "OpenRCX"
*PROGRAM "Parallel Extraction"
*VERSION "1.0"
*DESIGN_FLOW "NAME_SCOPE LOCAL" "PIN_CAP NONE"
*DIVIDER /
*DELIMITER :
*BUS_DELIMITER []
*T_UNIT 1 NS
*C_UNIT 1 PF
*R_UNIT 1 OHM
*L_UNIT 1 HENRY

*NAME_MAP
*1 bottom_width_0_height_0_subtile_0__pin_I_2_
*2 bottom_width_0_height_0_subtile_0__pin_I_6_
*3 bottom_width_0_height_0_subtile_0__pin_O_0_
*4 bottom_width_0_height_0_subtile_0__pin_clk_0_
*5 ccff_head
*6 ccff_tail
*7 clk
*8 left_width_0_height_0_subtile_0__pin_I_3_
*9 left_width_0_height_0_subtile_0__pin_I_7_
*10 left_width_0_height_0_subtile_0__pin_O_1_
*11 prog_clk
*12 reset
*13 right_width_0_height_0_subtile_0__pin_I_1_
*14 right_width_0_height_0_subtile_0__pin_I_5_
*15 right_width_0_height_0_subtile_0__pin_I_9_
*16 right_width_0_height_0_subtile_0__pin_O_3_
*17 set
*18 top_width_0_height_0_subtile_0__pin_I_0_
*19 top_width_0_height_0_subtile_0__pin_I_4_
*20 top_width_0_height_0_subtile_0__pin_I_8_
*21 top_width_0_height_0_subtile_0__pin_O_2_
*24 _0000_
*25 _0001_
*26 _0002_
*27 _0003_
*28 _0004_
*29 _0005_
*30 _0006_
*31 _0007_
*32 _0008_
*33 _0009_
*34 _0010_
*35 _0011_
*36 _0012_
*37 _0013_
*38 _0014_
*39 _0015_
*40 _0016_
*41 _0017_
*42 _0018_
*43 _0019_
*44 _0020_
*45 _0021_
*46 _0022_
*47 _0023_
*48 _0024_
*49 _0025_
*50 _0026_
*51 _0027_
*52 _0028_
*53 _0029_
*54 _0030_
*55 _0031_
*56 _0032_
*57 _0033_
*58 _0034_
*59 _0035_
*60 _0036_
*61 _0037_
*62 _0038_
*63 _0039_
*64 _0040_
*65 _0041_
*66 _0042_
*67 _0043_
*68 _0044_
*69 _0045_
*70 _0046_
*71 _0047_
*72 _0048_
*73 _0049_
*74 _0050_
*75 _0051_
*76 _0052_
*77 _0053_
*78 _0054_
*79 _0055_
*80 _0056_
*81 _0057_
*82 _0058_
*83 _0059_
*84 _0060_
*85 _0061_
*86 _0062_
*87 _0063_
*88 _0064_
*89 _0065_
*90 _0066_
*91 _0067_
*92 _0068_
*93 _0069_
*94 _0070_
*95 _0071_
*96 _0072_
*97 _0073_
*98 _0074_
*99 _0075_
*100 _0076_
*101 _0077_
*102 _0078_
*103 _0079_
*104 _0080_
*105 _0081_
*106 _0082_
*107 _0083_
*108 _0084_
*109 _0085_
*110 _0086_
*111 _0087_
*112 _0088_
*113 _0089_
*114 _0090_
*115 _0091_
*116 _0092_
*117 _0093_
*118 _0094_
*119 _0095_
*120 _0096_
*121 _0097_
*122 _0098_
*123 _0099_
*124 _0100_
*125 _0101_
*126 _0102_
*127 _0103_
*128 _0104_
*129 _0105_
*130 _0106_
*131 _0107_
*132 _0108_
*133 _0109_
*134 _0110_
*135 _0111_
*136 _0112_
*137 _0113_
*138 _0114_
*139 _0115_
*140 _0116_
*141 _0117_
*142 _0118_
*143 _0119_
*144 _0120_
*145 _0121_
*146 _0122_
*147 _0123_
*148 _0124_
*149 _0125_
*150 _0126_
*151 _0127_
*152 _0128_
*153 _0129_
*154 _0130_
*155 _0131_
*156 _0132_
*157 _0133_
*158 _0134_
*159 _0135_
*160 _0136_
*161 _0137_
*162 _0138_
*163 _0139_
*164 _0140_
*165 _0141_
*166 _0142_
*167 _0143_
*168 _0144_
*169 _0145_
*170 _0146_
*171 _0147_
*172 _0148_
*173 _0149_
*174 _0150_
*175 _0151_
*176 _0152_
*177 _0153_
*178 _0154_
*179 _0155_
*180 _0156_
*181 _0157_
*182 _0158_
*183 _0159_
*184 _0160_
*185 _0161_
*186 _0162_
*187 _0163_
*188 _0164_
*189 _0165_
*190 _0166_
*191 _0167_
*192 _0168_
*193 _0169_
*194 _0170_
*195 _0171_
*196 _0172_
*197 _0173_
*198 _0174_
*199 _0175_
*200 _0176_
*201 _0177_
*202 _0178_
*203 _0179_
*204 _0180_
*205 _0181_
*206 _0182_
*207 _0183_
*208 _0184_
*209 _0185_
*210 _0186_
*211 _0187_
*212 _0188_
*213 _0189_
*214 _0190_
*215 _0191_
*216 _0192_
*217 _0193_
*218 _0194_
*219 _0195_
*220 _0196_
*221 _0197_
*222 _0198_
*223 _0199_
*224 _0200_
*225 _0201_
*226 _0202_
*227 _0203_
*228 _0204_
*229 _0205_
*230 _0206_
*231 _0207_
*232 _0208_
*233 _0209_
*234 _0210_
*235 _0211_
*236 _0212_
*237 _0213_
*238 _0214_
*239 _0215_
*240 _0216_
*241 _0217_
*242 _0218_
*243 _0219_
*244 _0220_
*245 _0221_
*246 _0222_
*247 _0223_
*248 _0224_
*249 _0225_
*250 _0226_
*251 _0227_
*252 _0228_
*253 _0229_
*254 _0230_
*255 _0231_
*256 _0232_
*257 _0233_
*258 _0234_
*259 _0235_
*260 _0236_
*261 _0237_
*262 _0238_
*263 _0239_
*264 _0240_
*265 _0241_
*266 _0242_
*267 _0243_
*268 _0244_
*269 _0245_
*270 _0246_
*271 _0247_
*272 _0248_
*273 _0249_
*274 _0250_
*275 _0251_
*276 _0252_
*277 _0253_
*278 _0254_
*279 _0255_
*280 _0256_
*281 _0257_
*282 _0258_
*283 _0259_
*284 _0260_
*285 _0261_
*286 _0262_
*287 _0263_
*288 _0264_
*289 _0265_
*290 _0266_
*291 _0267_
*292 _0268_
*293 _0269_
*294 _0270_
*295 _0271_
*296 _0272_
*297 _0273_
*298 _0274_
*299 _0275_
*300 _0276_
*301 _0277_
*302 _0278_
*303 _0279_
*304 _0280_
*305 _0281_
*306 _0282_
*307 _0283_
*308 _0284_
*309 _0285_
*310 _0286_
*311 _0287_
*312 _0288_
*313 _0289_
*314 _0290_
*315 _0291_
*316 _0292_
*317 _0293_
*318 _0294_
*319 _0295_
*320 _0296_
*321 _0297_
*322 _0298_
*323 _0299_
*324 _0300_
*325 _0301_
*326 _0302_
*327 _0303_
*328 _0304_
*329 _0305_
*330 _0306_
*331 _0307_
*332 _0308_
*333 _0309_
*334 _0310_
*335 _0311_
*336 _0312_
*337 _0313_
*338 _0314_
*339 _0315_
*340 _0316_
*341 _0317_
*342 _0318_
*343 _0319_
*344 _0320_
*345 _0321_
*346 _0322_
*347 _0323_
*348 _0324_
*349 _0325_
*350 _0326_
*351 _0327_
*352 _0328_
*353 _0329_
*354 _0330_
*355 _0331_
*356 _0332_
*357 _0333_
*358 _0334_
*359 _0335_
*360 _0336_
*361 _0337_
*362 _0338_
*363 _0339_
*364 _0340_
*365 _0341_
*366 _0342_
*367 _0343_
*368 _0344_
*369 _0345_
*370 _0346_
*371 _0347_
*372 _0348_
*373 _0349_
*374 _0350_
*375 _0351_
*376 _0352_
*377 _0353_
*378 _0354_
*379 _0355_
*380 _0356_
*381 _0357_
*382 _0358_
*383 _0359_
*384 _0360_
*385 _0361_
*386 _0362_
*387 _0363_
*388 _0364_
*389 _0365_
*390 _0366_
*391 _0367_
*392 _0368_
*393 _0369_
*394 _0370_
*395 _0371_
*396 _0372_
*397 _0373_
*398 _0374_
*399 _0375_
*400 _0376_
*401 _0377_
*402 _0378_
*403 _0379_
*404 _0380_
*405 _0381_
*406 _0382_
*407 _0383_
*408 _0384_
*409 _0385_
*410 _0386_
*411 _0387_
*412 _0388_
*413 _0389_
*414 _0390_
*415 _0391_
*416 _0392_
*417 _0393_
*418 _0394_
*419 _0395_
*420 _0396_
*421 _0397_
*422 _0398_
*423 _0399_
*424 _0400_
*425 _0401_
*426 _0402_
*427 _0403_
*428 _0404_
*429 _0405_
*430 _0406_
*431 _0407_
*432 _0408_
*433 _0409_
*434 _0410_
*435 _0411_
*436 _0412_
*437 _0413_
*438 _0414_
*439 _0415_
*440 _0416_
*441 _0417_
*442 _0418_
*443 _0419_
*444 _0420_
*445 _0421_
*446 _0422_
*447 _0423_
*448 _0424_
*449 _0425_
*450 _0426_
*451 _0427_
*452 _0428_
*453 _0429_
*454 _0430_
*455 _0431_
*456 _0432_
*457 _0433_
*458 _0434_
*459 _0435_
*460 _0436_
*461 _0437_
*462 _0438_
*463 _0439_
*464 _0440_
*465 _0441_
*466 _0442_
*467 _0443_
*468 _0444_
*469 _0445_
*470 _0446_
*471 _0447_
*472 _0448_
*473 _0449_
*474 _0450_
*475 _0451_
*476 _0452_
*477 _0453_
*478 _0454_
*479 _0455_
*480 _0456_
*481 _0457_
*482 _0458_
*483 _0459_
*484 _0460_
*485 _0461_
*486 _0462_
*487 _0463_
*488 _0464_
*489 _0465_
*490 _0466_
*491 _0467_
*492 _0468_
*493 _0469_
*494 _0470_
*495 _0471_
*496 _0472_
*497 _0473_
*498 _0474_
*499 _0475_
*500 _0476_
*501 _0477_
*502 _0478_
*503 _0479_
*504 _0480_
*505 _0481_
*506 _0482_
*507 _0483_
*508 _0484_
*509 _0485_
*510 _0486_
*511 _0487_
*512 _0488_
*513 _0489_
*514 _0490_
*515 _0491_
*516 _0492_
*517 _0493_
*518 _0494_
*519 _0495_
*520 _0496_
*521 _0497_
*522 _0498_
*523 _0499_
*524 _0500_
*525 _0501_
*526 _0502_
*527 _0503_
*528 _0504_
*529 _0505_
*530 _0506_
*531 _0507_
*532 _0508_
*533 _0509_
*534 _0510_
*535 _0511_
*536 _0512_
*537 _0513_
*538 _0514_
*539 _0515_
*540 _0516_
*541 _0517_
*542 _0518_
*543 _0519_
*544 _0520_
*545 _0521_
*546 _0522_
*547 _0523_
*548 _0524_
*549 _0525_
*550 _0526_
*551 _0527_
*552 _0528_
*553 _0529_
*554 _0530_
*555 _0531_
*556 _0532_
*557 _0533_
*558 _0534_
*559 _0535_
*560 _0536_
*561 _0537_
*562 _0538_
*563 _0539_
*564 _0540_
*565 _0541_
*566 _0542_
*567 _0543_
*568 _0544_
*569 _0545_
*570 _0546_
*571 _0547_
*572 _0548_
*573 _0549_
*574 _0550_
*575 _0551_
*576 _0552_
*577 _0553_
*578 _0554_
*579 _0555_
*580 _0556_
*581 _0557_
*582 _0558_
*583 _0559_
*584 _0560_
*585 _0561_
*586 _0562_
*587 _0563_
*588 _0564_
*589 _0565_
*590 _0566_
*591 _0567_
*592 _0568_
*593 _0569_
*594 _0570_
*595 _0571_
*596 _0572_
*597 _0573_
*598 _0574_
*599 _0575_
*600 _0576_
*601 _0577_
*602 _0578_
*603 _0579_
*604 _0580_
*605 _0581_
*606 _0582_
*607 _0583_
*608 _0584_
*609 _0585_
*610 _0586_
*611 _0587_
*612 _0588_
*613 _0589_
*614 _0590_
*615 _0591_
*616 _0592_
*617 _0593_
*618 _0594_
*619 _0595_
*620 _0596_
*621 _0597_
*622 _0598_
*623 _0599_
*624 _0600_
*625 _0601_
*626 _0602_
*627 _0603_
*628 _0604_
*629 _0605_
*630 _0606_
*631 _0607_
*632 _0608_
*633 _0609_
*634 _0610_
*635 _0611_
*636 _0612_
*637 _0613_
*638 _0614_
*639 _0615_
*640 _0616_
*641 _0617_
*642 _0618_
*643 _0619_
*644 _0620_
*645 _0621_
*646 _0622_
*647 _0623_
*648 _0624_
*649 _0625_
*650 _0626_
*651 _0627_
*652 _0628_
*653 _0629_
*654 _0630_
*655 _0631_
*656 _0632_
*657 _0633_
*658 _0634_
*659 _0635_
*660 _0636_
*661 _0637_
*662 _0638_
*663 _0639_
*664 _0640_
*665 _0641_
*666 _0642_
*667 _0643_
*668 _0644_
*669 _0645_
*670 _0646_
*671 _0647_
*672 _0648_
*673 _0649_
*674 _0650_
*675 _0651_
*676 _0652_
*677 _0653_
*678 _0654_
*679 _0655_
*680 _0656_
*681 _0657_
*682 _0658_
*683 _0659_
*684 _0660_
*685 _0661_
*686 _0662_
*687 _0663_
*688 _0664_
*689 _0665_
*690 _0666_
*691 _0667_
*692 _0668_
*693 _0669_
*694 _0670_
*695 _0671_
*696 _0672_
*697 _0673_
*698 _0674_
*699 _0675_
*700 _0676_
*701 _0677_
*702 _0678_
*703 _0679_
*704 _0680_
*705 _0681_
*706 _0682_
*707 _0683_
*708 _0684_
*709 _0685_
*710 _0686_
*711 _0687_
*712 _0688_
*713 _0689_
*714 _0690_
*715 _0691_
*716 _0692_
*717 _0693_
*718 _0694_
*719 _0695_
*720 _0696_
*721 _0697_
*722 _0698_
*723 _0699_
*724 _0700_
*725 _0701_
*726 _0702_
*727 _0703_
*728 _0704_
*729 _0705_
*730 _0706_
*731 _0707_
*732 _0708_
*733 _0709_
*734 _0710_
*735 _0711_
*736 _0712_
*737 _0713_
*738 _0714_
*739 _0715_
*740 _0716_
*741 _0717_
*742 _0718_
*743 _0719_
*744 _0720_
*745 _0721_
*746 _0722_
*747 _0723_
*748 _0724_
*749 _0725_
*750 _0726_
*751 _0727_
*752 _0728_
*753 _0729_
*754 _0730_
*755 _0731_
*756 _0732_
*757 _0733_
*758 _0734_
*759 _0735_
*760 _0736_
*761 _0737_
*762 _0738_
*763 _0739_
*764 _0740_
*765 _0741_
*766 _0742_
*767 _0743_
*768 _0744_
*769 _0745_
*770 _0746_
*771 _0747_
*772 _0748_
*773 _0749_
*774 _0750_
*775 _0751_
*776 _0752_
*777 _0753_
*778 _0754_
*779 _0755_
*780 _0756_
*781 _0757_
*782 _0758_
*783 _0759_
*784 _0760_
*785 _0761_
*786 _0762_
*787 _0763_
*788 _0764_
*789 _0765_
*790 _0766_
*791 _0767_
*792 _0768_
*793 _0769_
*794 _0770_
*795 _0771_
*796 _0772_
*797 _0773_
*798 _0774_
*799 _0775_
*800 _0776_
*801 _0777_
*802 _0778_
*803 _0779_
*804 _0780_
*805 _0781_
*806 _0782_
*807 _0783_
*808 _0784_
*809 _0785_
*810 _0786_
*811 _0787_
*812 _0788_
*813 _0789_
*814 _0790_
*815 _0791_
*816 _0792_
*817 _0793_
*818 _0794_
*819 _0795_
*820 _0796_
*821 _0797_
*822 _0798_
*823 _0799_
*824 _0800_
*825 _0801_
*826 _0802_
*827 _0803_
*828 _0804_
*829 _0805_
*830 _0806_
*831 _0807_
*832 _0808_
*833 _0809_
*834 _0810_
*835 _0811_
*836 _0812_
*837 _0813_
*838 _0814_
*839 _0815_
*840 _0816_
*841 _0817_
*842 _0818_
*843 _0819_
*844 _0820_
*845 _0821_
*846 _0822_
*847 _0823_
*848 _0824_
*849 _0825_
*850 _0826_
*851 _0827_
*852 _0828_
*853 _0829_
*854 _0830_
*855 _0831_
*856 _0832_
*857 _0833_
*858 _0834_
*859 _0835_
*860 _0836_
*861 _0837_
*862 _0838_
*863 _0839_
*864 _0840_
*865 _0841_
*866 _0842_
*867 _0843_
*868 _0844_
*869 _0845_
*870 _0846_
*871 _0847_
*872 _0848_
*873 _0849_
*874 _0850_
*875 _0851_
*876 _0852_
*877 _0853_
*878 _0854_
*879 _0855_
*880 _0856_
*881 _0857_
*882 _0858_
*883 _0859_
*884 _0860_
*885 _0861_
*886 _0862_
*887 _0863_
*888 _0864_
*889 _0865_
*890 _0866_
*891 _0867_
*892 _0868_
*893 _0869_
*894 _0870_
*895 _0871_
*896 _0872_
*897 _0873_
*898 _0874_
*899 _0875_
*900 _0876_
*901 _0877_
*902 _0878_
*903 _0879_
*904 _0880_
*905 _0881_
*906 _0882_
*907 _0883_
*908 _0884_
*909 _0885_
*910 _0886_
*911 _0887_
*912 _0888_
*913 _0889_
*914 _0890_
*915 _0891_
*916 _0892_
*917 _0893_
*918 _0894_
*919 _0895_
*920 _0896_
*921 _0897_
*922 _0898_
*923 _0899_
*924 _0900_
*925 _0901_
*926 _0902_
*927 _0903_
*928 _0904_
*929 _0905_
*930 _0906_
*931 _0907_
*932 clknet_0_prog_clk
*933 clknet_4_0_0_prog_clk
*934 clknet_4_10_0_prog_clk
*935 clknet_4_11_0_prog_clk
*936 clknet_4_12_0_prog_clk
*937 clknet_4_13_0_prog_clk
*938 clknet_4_14_0_prog_clk
*939 clknet_4_15_0_prog_clk
*940 clknet_4_1_0_prog_clk
*941 clknet_4_2_0_prog_clk
*942 clknet_4_3_0_prog_clk
*943 clknet_4_4_0_prog_clk
*944 clknet_4_5_0_prog_clk
*945 clknet_4_6_0_prog_clk
*946 clknet_4_7_0_prog_clk
*947 clknet_4_8_0_prog_clk
*948 clknet_4_9_0_prog_clk
*949 logical_tile_clb_mode_clb__0\.logical_tile_clb_mode_default__fle_0\.ccff_tail
*950 logical_tile_clb_mode_clb__0\.logical_tile_clb_mode_default__fle_0\.logical_tile_clb_mode_default__fle_mode_n1_lut4__ble4_0\.direct_interc_4_\.in
*951 logical_tile_clb_mode_clb__0\.logical_tile_clb_mode_default__fle_0\.logical_tile_clb_mode_default__fle_mode_n1_lut4__ble4_0\.logical_tile_clb_mode_default__fle_mode_n1_lut4__ble4_mode_default__ff_0\.DFFSRQ_0_\.Q
*952 logical_tile_clb_mode_clb__0\.logical_tile_clb_mode_default__fle_0\.logical_tile_clb_mode_default__fle_mode_n1_lut4__ble4_0\.logical_tile_clb_mode_default__fle_mode_n1_lut4__ble4_mode_default__lut4_0\.ccff_tail
*953 logical_tile_clb_mode_clb__0\.logical_tile_clb_mode_default__fle_0\.logical_tile_clb_mode_default__fle_mode_n1_lut4__ble4_0\.logical_tile_clb_mode_default__fle_mode_n1_lut4__ble4_mode_default__lut4_0\.lut4_0_\.INVTX1_0_\.out
*954 logical_tile_clb_mode_clb__0\.logical_tile_clb_mode_default__fle_0\.logical_tile_clb_mode_default__fle_mode_n1_lut4__ble4_0\.logical_tile_clb_mode_default__fle_mode_n1_lut4__ble4_mode_default__lut4_0\.lut4_0_\.INVTX1_1_\.out
*955 logical_tile_clb_mode_clb__0\.logical_tile_clb_mode_default__fle_0\.logical_tile_clb_mode_default__fle_mode_n1_lut4__ble4_0\.logical_tile_clb_mode_default__fle_mode_n1_lut4__ble4_mode_default__lut4_0\.lut4_0_\.INVTX1_2_\.out
*956 logical_tile_clb_mode_clb__0\.logical_tile_clb_mode_default__fle_0\.logical_tile_clb_mode_default__fle_mode_n1_lut4__ble4_0\.logical_tile_clb_mode_default__fle_mode_n1_lut4__ble4_mode_default__lut4_0\.lut4_0_\.INVTX1_3_\.out
*957 logical_tile_clb_mode_clb__0\.logical_tile_clb_mode_default__fle_0\.logical_tile_clb_mode_default__fle_mode_n1_lut4__ble4_0\.logical_tile_clb_mode_default__fle_mode_n1_lut4__ble4_mode_default__lut4_0\.lut4_0_\.lut4_mux_0_\.INVTX1_0_\.in
*958 logical_tile_clb_mode_clb__0\.logical_tile_clb_mode_default__fle_0\.logical_tile_clb_mode_default__fle_mode_n1_lut4__ble4_0\.logical_tile_clb_mode_default__fle_mode_n1_lut4__ble4_mode_default__lut4_0\.lut4_0_\.lut4_mux_0_\.INVTX1_0_\.out
*959 logical_tile_clb_mode_clb__0\.logical_tile_clb_mode_default__fle_0\.logical_tile_clb_mode_default__fle_mode_n1_lut4__ble4_0\.logical_tile_clb_mode_default__fle_mode_n1_lut4__ble4_mode_default__lut4_0\.lut4_0_\.lut4_mux_0_\.INVTX1_10_\.in
*960 logical_tile_clb_mode_clb__0\.logical_tile_clb_mode_default__fle_0\.logical_tile_clb_mode_default__fle_mode_n1_lut4__ble4_0\.logical_tile_clb_mode_default__fle_mode_n1_lut4__ble4_mode_default__lut4_0\.lut4_0_\.lut4_mux_0_\.INVTX1_10_\.out
*961 logical_tile_clb_mode_clb__0\.logical_tile_clb_mode_default__fle_0\.logical_tile_clb_mode_default__fle_mode_n1_lut4__ble4_0\.logical_tile_clb_mode_default__fle_mode_n1_lut4__ble4_mode_default__lut4_0\.lut4_0_\.lut4_mux_0_\.INVTX1_11_\.in
*962 logical_tile_clb_mode_clb__0\.logical_tile_clb_mode_default__fle_0\.logical_tile_clb_mode_default__fle_mode_n1_lut4__ble4_0\.logical_tile_clb_mode_default__fle_mode_n1_lut4__ble4_mode_default__lut4_0\.lut4_0_\.lut4_mux_0_\.INVTX1_11_\.out
*963 logical_tile_clb_mode_clb__0\.logical_tile_clb_mode_default__fle_0\.logical_tile_clb_mode_default__fle_mode_n1_lut4__ble4_0\.logical_tile_clb_mode_default__fle_mode_n1_lut4__ble4_mode_default__lut4_0\.lut4_0_\.lut4_mux_0_\.INVTX1_12_\.in
*964 logical_tile_clb_mode_clb__0\.logical_tile_clb_mode_default__fle_0\.logical_tile_clb_mode_default__fle_mode_n1_lut4__ble4_0\.logical_tile_clb_mode_default__fle_mode_n1_lut4__ble4_mode_default__lut4_0\.lut4_0_\.lut4_mux_0_\.INVTX1_12_\.out
*965 logical_tile_clb_mode_clb__0\.logical_tile_clb_mode_default__fle_0\.logical_tile_clb_mode_default__fle_mode_n1_lut4__ble4_0\.logical_tile_clb_mode_default__fle_mode_n1_lut4__ble4_mode_default__lut4_0\.lut4_0_\.lut4_mux_0_\.INVTX1_13_\.in
*966 logical_tile_clb_mode_clb__0\.logical_tile_clb_mode_default__fle_0\.logical_tile_clb_mode_default__fle_mode_n1_lut4__ble4_0\.logical_tile_clb_mode_default__fle_mode_n1_lut4__ble4_mode_default__lut4_0\.lut4_0_\.lut4_mux_0_\.INVTX1_13_\.out
*967 logical_tile_clb_mode_clb__0\.logical_tile_clb_mode_default__fle_0\.logical_tile_clb_mode_default__fle_mode_n1_lut4__ble4_0\.logical_tile_clb_mode_default__fle_mode_n1_lut4__ble4_mode_default__lut4_0\.lut4_0_\.lut4_mux_0_\.INVTX1_14_\.in
*968 logical_tile_clb_mode_clb__0\.logical_tile_clb_mode_default__fle_0\.logical_tile_clb_mode_default__fle_mode_n1_lut4__ble4_0\.logical_tile_clb_mode_default__fle_mode_n1_lut4__ble4_mode_default__lut4_0\.lut4_0_\.lut4_mux_0_\.INVTX1_14_\.out
*969 logical_tile_clb_mode_clb__0\.logical_tile_clb_mode_default__fle_0\.logical_tile_clb_mode_default__fle_mode_n1_lut4__ble4_0\.logical_tile_clb_mode_default__fle_mode_n1_lut4__ble4_mode_default__lut4_0\.lut4_0_\.lut4_mux_0_\.INVTX1_15_\.out
*970 logical_tile_clb_mode_clb__0\.logical_tile_clb_mode_default__fle_0\.logical_tile_clb_mode_default__fle_mode_n1_lut4__ble4_0\.logical_tile_clb_mode_default__fle_mode_n1_lut4__ble4_mode_default__lut4_0\.lut4_0_\.lut4_mux_0_\.INVTX1_16_\.in
*971 logical_tile_clb_mode_clb__0\.logical_tile_clb_mode_default__fle_0\.logical_tile_clb_mode_default__fle_mode_n1_lut4__ble4_0\.logical_tile_clb_mode_default__fle_mode_n1_lut4__ble4_mode_default__lut4_0\.lut4_0_\.lut4_mux_0_\.INVTX1_1_\.in
*972 logical_tile_clb_mode_clb__0\.logical_tile_clb_mode_default__fle_0\.logical_tile_clb_mode_default__fle_mode_n1_lut4__ble4_0\.logical_tile_clb_mode_default__fle_mode_n1_lut4__ble4_mode_default__lut4_0\.lut4_0_\.lut4_mux_0_\.INVTX1_1_\.out
*973 logical_tile_clb_mode_clb__0\.logical_tile_clb_mode_default__fle_0\.logical_tile_clb_mode_default__fle_mode_n1_lut4__ble4_0\.logical_tile_clb_mode_default__fle_mode_n1_lut4__ble4_mode_default__lut4_0\.lut4_0_\.lut4_mux_0_\.INVTX1_2_\.in
*974 logical_tile_clb_mode_clb__0\.logical_tile_clb_mode_default__fle_0\.logical_tile_clb_mode_default__fle_mode_n1_lut4__ble4_0\.logical_tile_clb_mode_default__fle_mode_n1_lut4__ble4_mode_default__lut4_0\.lut4_0_\.lut4_mux_0_\.INVTX1_2_\.out
*975 logical_tile_clb_mode_clb__0\.logical_tile_clb_mode_default__fle_0\.logical_tile_clb_mode_default__fle_mode_n1_lut4__ble4_0\.logical_tile_clb_mode_default__fle_mode_n1_lut4__ble4_mode_default__lut4_0\.lut4_0_\.lut4_mux_0_\.INVTX1_3_\.in
*976 logical_tile_clb_mode_clb__0\.logical_tile_clb_mode_default__fle_0\.logical_tile_clb_mode_default__fle_mode_n1_lut4__ble4_0\.logical_tile_clb_mode_default__fle_mode_n1_lut4__ble4_mode_default__lut4_0\.lut4_0_\.lut4_mux_0_\.INVTX1_3_\.out
*977 logical_tile_clb_mode_clb__0\.logical_tile_clb_mode_default__fle_0\.logical_tile_clb_mode_default__fle_mode_n1_lut4__ble4_0\.logical_tile_clb_mode_default__fle_mode_n1_lut4__ble4_mode_default__lut4_0\.lut4_0_\.lut4_mux_0_\.INVTX1_4_\.in
*978 logical_tile_clb_mode_clb__0\.logical_tile_clb_mode_default__fle_0\.logical_tile_clb_mode_default__fle_mode_n1_lut4__ble4_0\.logical_tile_clb_mode_default__fle_mode_n1_lut4__ble4_mode_default__lut4_0\.lut4_0_\.lut4_mux_0_\.INVTX1_4_\.out
*979 logical_tile_clb_mode_clb__0\.logical_tile_clb_mode_default__fle_0\.logical_tile_clb_mode_default__fle_mode_n1_lut4__ble4_0\.logical_tile_clb_mode_default__fle_mode_n1_lut4__ble4_mode_default__lut4_0\.lut4_0_\.lut4_mux_0_\.INVTX1_5_\.in
*980 logical_tile_clb_mode_clb__0\.logical_tile_clb_mode_default__fle_0\.logical_tile_clb_mode_default__fle_mode_n1_lut4__ble4_0\.logical_tile_clb_mode_default__fle_mode_n1_lut4__ble4_mode_default__lut4_0\.lut4_0_\.lut4_mux_0_\.INVTX1_5_\.out
*981 logical_tile_clb_mode_clb__0\.logical_tile_clb_mode_default__fle_0\.logical_tile_clb_mode_default__fle_mode_n1_lut4__ble4_0\.logical_tile_clb_mode_default__fle_mode_n1_lut4__ble4_mode_default__lut4_0\.lut4_0_\.lut4_mux_0_\.INVTX1_6_\.in
*982 logical_tile_clb_mode_clb__0\.logical_tile_clb_mode_default__fle_0\.logical_tile_clb_mode_default__fle_mode_n1_lut4__ble4_0\.logical_tile_clb_mode_default__fle_mode_n1_lut4__ble4_mode_default__lut4_0\.lut4_0_\.lut4_mux_0_\.INVTX1_6_\.out
*983 logical_tile_clb_mode_clb__0\.logical_tile_clb_mode_default__fle_0\.logical_tile_clb_mode_default__fle_mode_n1_lut4__ble4_0\.logical_tile_clb_mode_default__fle_mode_n1_lut4__ble4_mode_default__lut4_0\.lut4_0_\.lut4_mux_0_\.INVTX1_7_\.in
*984 logical_tile_clb_mode_clb__0\.logical_tile_clb_mode_default__fle_0\.logical_tile_clb_mode_default__fle_mode_n1_lut4__ble4_0\.logical_tile_clb_mode_default__fle_mode_n1_lut4__ble4_mode_default__lut4_0\.lut4_0_\.lut4_mux_0_\.INVTX1_7_\.out
*985 logical_tile_clb_mode_clb__0\.logical_tile_clb_mode_default__fle_0\.logical_tile_clb_mode_default__fle_mode_n1_lut4__ble4_0\.logical_tile_clb_mode_default__fle_mode_n1_lut4__ble4_mode_default__lut4_0\.lut4_0_\.lut4_mux_0_\.INVTX1_8_\.in
*986 logical_tile_clb_mode_clb__0\.logical_tile_clb_mode_default__fle_0\.logical_tile_clb_mode_default__fle_mode_n1_lut4__ble4_0\.logical_tile_clb_mode_default__fle_mode_n1_lut4__ble4_mode_default__lut4_0\.lut4_0_\.lut4_mux_0_\.INVTX1_8_\.out
*987 logical_tile_clb_mode_clb__0\.logical_tile_clb_mode_default__fle_0\.logical_tile_clb_mode_default__fle_mode_n1_lut4__ble4_0\.logical_tile_clb_mode_default__fle_mode_n1_lut4__ble4_mode_default__lut4_0\.lut4_0_\.lut4_mux_0_\.INVTX1_9_\.in
*988 logical_tile_clb_mode_clb__0\.logical_tile_clb_mode_default__fle_0\.logical_tile_clb_mode_default__fle_mode_n1_lut4__ble4_0\.logical_tile_clb_mode_default__fle_mode_n1_lut4__ble4_mode_default__lut4_0\.lut4_0_\.lut4_mux_0_\.INVTX1_9_\.out
*989 logical_tile_clb_mode_clb__0\.logical_tile_clb_mode_default__fle_0\.logical_tile_clb_mode_default__fle_mode_n1_lut4__ble4_0\.logical_tile_clb_mode_default__fle_mode_n1_lut4__ble4_mode_default__lut4_0\.lut4_0_\.lut4_mux_0_\.lut4_mux_basis_input2_mem1_0_out
*990 logical_tile_clb_mode_clb__0\.logical_tile_clb_mode_default__fle_0\.logical_tile_clb_mode_default__fle_mode_n1_lut4__ble4_0\.logical_tile_clb_mode_default__fle_mode_n1_lut4__ble4_mode_default__lut4_0\.lut4_0_\.lut4_mux_0_\.lut4_mux_basis_input2_mem1_10_out
*991 logical_tile_clb_mode_clb__0\.logical_tile_clb_mode_default__fle_0\.logical_tile_clb_mode_default__fle_mode_n1_lut4__ble4_0\.logical_tile_clb_mode_default__fle_mode_n1_lut4__ble4_mode_default__lut4_0\.lut4_0_\.lut4_mux_0_\.lut4_mux_basis_input2_mem1_11_out
*992 logical_tile_clb_mode_clb__0\.logical_tile_clb_mode_default__fle_0\.logical_tile_clb_mode_default__fle_mode_n1_lut4__ble4_0\.logical_tile_clb_mode_default__fle_mode_n1_lut4__ble4_mode_default__lut4_0\.lut4_0_\.lut4_mux_0_\.lut4_mux_basis_input2_mem1_12_out
*993 logical_tile_clb_mode_clb__0\.logical_tile_clb_mode_default__fle_0\.logical_tile_clb_mode_default__fle_mode_n1_lut4__ble4_0\.logical_tile_clb_mode_default__fle_mode_n1_lut4__ble4_mode_default__lut4_0\.lut4_0_\.lut4_mux_0_\.lut4_mux_basis_input2_mem1_13_out
*994 logical_tile_clb_mode_clb__0\.logical_tile_clb_mode_default__fle_0\.logical_tile_clb_mode_default__fle_mode_n1_lut4__ble4_0\.logical_tile_clb_mode_default__fle_mode_n1_lut4__ble4_mode_default__lut4_0\.lut4_0_\.lut4_mux_0_\.lut4_mux_basis_input2_mem1_1_out
*995 logical_tile_clb_mode_clb__0\.logical_tile_clb_mode_default__fle_0\.logical_tile_clb_mode_default__fle_mode_n1_lut4__ble4_0\.logical_tile_clb_mode_default__fle_mode_n1_lut4__ble4_mode_default__lut4_0\.lut4_0_\.lut4_mux_0_\.lut4_mux_basis_input2_mem1_2_out
*996 logical_tile_clb_mode_clb__0\.logical_tile_clb_mode_default__fle_0\.logical_tile_clb_mode_default__fle_mode_n1_lut4__ble4_0\.logical_tile_clb_mode_default__fle_mode_n1_lut4__ble4_mode_default__lut4_0\.lut4_0_\.lut4_mux_0_\.lut4_mux_basis_input2_mem1_3_out
*997 logical_tile_clb_mode_clb__0\.logical_tile_clb_mode_default__fle_0\.logical_tile_clb_mode_default__fle_mode_n1_lut4__ble4_0\.logical_tile_clb_mode_default__fle_mode_n1_lut4__ble4_mode_default__lut4_0\.lut4_0_\.lut4_mux_0_\.lut4_mux_basis_input2_mem1_4_out
*998 logical_tile_clb_mode_clb__0\.logical_tile_clb_mode_default__fle_0\.logical_tile_clb_mode_default__fle_mode_n1_lut4__ble4_0\.logical_tile_clb_mode_default__fle_mode_n1_lut4__ble4_mode_default__lut4_0\.lut4_0_\.lut4_mux_0_\.lut4_mux_basis_input2_mem1_5_out
*999 logical_tile_clb_mode_clb__0\.logical_tile_clb_mode_default__fle_0\.logical_tile_clb_mode_default__fle_mode_n1_lut4__ble4_0\.logical_tile_clb_mode_default__fle_mode_n1_lut4__ble4_mode_default__lut4_0\.lut4_0_\.lut4_mux_0_\.lut4_mux_basis_input2_mem1_6_out
*1000 logical_tile_clb_mode_clb__0\.logical_tile_clb_mode_default__fle_0\.logical_tile_clb_mode_default__fle_mode_n1_lut4__ble4_0\.logical_tile_clb_mode_default__fle_mode_n1_lut4__ble4_mode_default__lut4_0\.lut4_0_\.lut4_mux_0_\.lut4_mux_basis_input2_mem1_7_out
*1001 logical_tile_clb_mode_clb__0\.logical_tile_clb_mode_default__fle_0\.logical_tile_clb_mode_default__fle_mode_n1_lut4__ble4_0\.logical_tile_clb_mode_default__fle_mode_n1_lut4__ble4_mode_default__lut4_0\.lut4_0_\.lut4_mux_0_\.lut4_mux_basis_input2_mem1_8_out
*1002 logical_tile_clb_mode_clb__0\.logical_tile_clb_mode_default__fle_0\.logical_tile_clb_mode_default__fle_mode_n1_lut4__ble4_0\.logical_tile_clb_mode_default__fle_mode_n1_lut4__ble4_mode_default__lut4_0\.lut4_0_\.lut4_mux_0_\.lut4_mux_basis_input2_mem1_9_out
*1003 logical_tile_clb_mode_clb__0\.logical_tile_clb_mode_default__fle_0\.logical_tile_clb_mode_default__fle_mode_n1_lut4__ble4_0\.mem_ble4_out_0\.DFF_0_\.Q
*1004 logical_tile_clb_mode_clb__0\.logical_tile_clb_mode_default__fle_0\.logical_tile_clb_mode_default__fle_mode_n1_lut4__ble4_0\.mux_ble4_out_0\.INVTX1_0_\.out
*1005 logical_tile_clb_mode_clb__0\.logical_tile_clb_mode_default__fle_0\.logical_tile_clb_mode_default__fle_mode_n1_lut4__ble4_0\.mux_ble4_out_0\.mux_l1_in_0_\.TGATE_0_\.out
*1006 logical_tile_clb_mode_clb__0\.logical_tile_clb_mode_default__fle_0\.logical_tile_clb_mode_default__fle_mode_n1_lut4__ble4_0\.mux_ble4_out_0\.mux_l2_in_0_\.TGATE_0_\.out
*1007 logical_tile_clb_mode_clb__0\.logical_tile_clb_mode_default__fle_1\.ccff_tail
*1008 logical_tile_clb_mode_clb__0\.logical_tile_clb_mode_default__fle_1\.logical_tile_clb_mode_default__fle_mode_n1_lut4__ble4_0\.direct_interc_4_\.in
*1009 logical_tile_clb_mode_clb__0\.logical_tile_clb_mode_default__fle_1\.logical_tile_clb_mode_default__fle_mode_n1_lut4__ble4_0\.logical_tile_clb_mode_default__fle_mode_n1_lut4__ble4_mode_default__ff_0\.DFFSRQ_0_\.Q
*1010 logical_tile_clb_mode_clb__0\.logical_tile_clb_mode_default__fle_1\.logical_tile_clb_mode_default__fle_mode_n1_lut4__ble4_0\.logical_tile_clb_mode_default__fle_mode_n1_lut4__ble4_mode_default__lut4_0\.ccff_tail
*1011 logical_tile_clb_mode_clb__0\.logical_tile_clb_mode_default__fle_1\.logical_tile_clb_mode_default__fle_mode_n1_lut4__ble4_0\.logical_tile_clb_mode_default__fle_mode_n1_lut4__ble4_mode_default__lut4_0\.lut4_0_\.INVTX1_0_\.out
*1012 logical_tile_clb_mode_clb__0\.logical_tile_clb_mode_default__fle_1\.logical_tile_clb_mode_default__fle_mode_n1_lut4__ble4_0\.logical_tile_clb_mode_default__fle_mode_n1_lut4__ble4_mode_default__lut4_0\.lut4_0_\.INVTX1_1_\.out
*1013 logical_tile_clb_mode_clb__0\.logical_tile_clb_mode_default__fle_1\.logical_tile_clb_mode_default__fle_mode_n1_lut4__ble4_0\.logical_tile_clb_mode_default__fle_mode_n1_lut4__ble4_mode_default__lut4_0\.lut4_0_\.INVTX1_2_\.out
*1014 logical_tile_clb_mode_clb__0\.logical_tile_clb_mode_default__fle_1\.logical_tile_clb_mode_default__fle_mode_n1_lut4__ble4_0\.logical_tile_clb_mode_default__fle_mode_n1_lut4__ble4_mode_default__lut4_0\.lut4_0_\.INVTX1_3_\.out
*1015 logical_tile_clb_mode_clb__0\.logical_tile_clb_mode_default__fle_1\.logical_tile_clb_mode_default__fle_mode_n1_lut4__ble4_0\.logical_tile_clb_mode_default__fle_mode_n1_lut4__ble4_mode_default__lut4_0\.lut4_0_\.lut4_mux_0_\.INVTX1_0_\.in
*1016 logical_tile_clb_mode_clb__0\.logical_tile_clb_mode_default__fle_1\.logical_tile_clb_mode_default__fle_mode_n1_lut4__ble4_0\.logical_tile_clb_mode_default__fle_mode_n1_lut4__ble4_mode_default__lut4_0\.lut4_0_\.lut4_mux_0_\.INVTX1_0_\.out
*1017 logical_tile_clb_mode_clb__0\.logical_tile_clb_mode_default__fle_1\.logical_tile_clb_mode_default__fle_mode_n1_lut4__ble4_0\.logical_tile_clb_mode_default__fle_mode_n1_lut4__ble4_mode_default__lut4_0\.lut4_0_\.lut4_mux_0_\.INVTX1_10_\.in
*1018 logical_tile_clb_mode_clb__0\.logical_tile_clb_mode_default__fle_1\.logical_tile_clb_mode_default__fle_mode_n1_lut4__ble4_0\.logical_tile_clb_mode_default__fle_mode_n1_lut4__ble4_mode_default__lut4_0\.lut4_0_\.lut4_mux_0_\.INVTX1_10_\.out
*1019 logical_tile_clb_mode_clb__0\.logical_tile_clb_mode_default__fle_1\.logical_tile_clb_mode_default__fle_mode_n1_lut4__ble4_0\.logical_tile_clb_mode_default__fle_mode_n1_lut4__ble4_mode_default__lut4_0\.lut4_0_\.lut4_mux_0_\.INVTX1_11_\.in
*1020 logical_tile_clb_mode_clb__0\.logical_tile_clb_mode_default__fle_1\.logical_tile_clb_mode_default__fle_mode_n1_lut4__ble4_0\.logical_tile_clb_mode_default__fle_mode_n1_lut4__ble4_mode_default__lut4_0\.lut4_0_\.lut4_mux_0_\.INVTX1_11_\.out
*1021 logical_tile_clb_mode_clb__0\.logical_tile_clb_mode_default__fle_1\.logical_tile_clb_mode_default__fle_mode_n1_lut4__ble4_0\.logical_tile_clb_mode_default__fle_mode_n1_lut4__ble4_mode_default__lut4_0\.lut4_0_\.lut4_mux_0_\.INVTX1_12_\.in
*1022 logical_tile_clb_mode_clb__0\.logical_tile_clb_mode_default__fle_1\.logical_tile_clb_mode_default__fle_mode_n1_lut4__ble4_0\.logical_tile_clb_mode_default__fle_mode_n1_lut4__ble4_mode_default__lut4_0\.lut4_0_\.lut4_mux_0_\.INVTX1_12_\.out
*1023 logical_tile_clb_mode_clb__0\.logical_tile_clb_mode_default__fle_1\.logical_tile_clb_mode_default__fle_mode_n1_lut4__ble4_0\.logical_tile_clb_mode_default__fle_mode_n1_lut4__ble4_mode_default__lut4_0\.lut4_0_\.lut4_mux_0_\.INVTX1_13_\.in