*SPEF "ieee 1481-1999"
*DESIGN "ioenb"
*DATE "11:11:11 Fri 11 11, 1111"
*VENDOR "OpenRCX"
*PROGRAM "Parallel Extraction"
*VERSION "1.0"
*DESIGN_FLOW "NAME_SCOPE LOCAL" "PIN_CAP NONE"
*DIVIDER /
*DELIMITER :
*BUS_DELIMITER []
*T_UNIT 1 NS
*C_UNIT 1 PF
*R_UNIT 1 OHM
*L_UNIT 1 HENRY

*NAME_MAP
*1 net15
*2 net2
*3 net3
*4 net24
*5 net4
*6 net5
*7 net6
*8 net7
*9 net8
*10 net9
*11 net10
*12 net16
*13 net11
*14 net12
*15 net13
*16 net14
*17 net25
*18 net26
*19 net27
*20 net28
*21 net29
*22 net30
*23 net17
*24 net31
*25 net32
*26 net33
*27 net34
*28 net35
*29 net36
*30 net37
*31 net38
*32 net18
*33 net19
*34 net20
*35 net21
*36 net22
*37 net23
*38 net1
*39 FILLER_0_0_104
*40 FILLER_0_0_113
*41 FILLER_0_0_125
*42 FILLER_0_0_133
*43 FILLER_0_0_139
*44 FILLER_0_0_14
*45 FILLER_0_0_141
*46 FILLER_0_0_153
*47 FILLER_0_0_161
*48 FILLER_0_0_167
*49 FILLER_0_0_169
*50 FILLER_0_0_181
*51 FILLER_0_0_189
*52 FILLER_0_0_195
*53 FILLER_0_0_197
*54 FILLER_0_0_20
*55 FILLER_0_0_209
*56 FILLER_0_0_217
*57 FILLER_0_0_223
*58 FILLER_0_0_225
*59 FILLER_0_0_237
*60 FILLER_0_0_245
*61 FILLER_0_0_251
*62 FILLER_0_0_253
*63 FILLER_0_0_265
*64 FILLER_0_0_277
*65 FILLER_0_0_281
*66 FILLER_0_0_286
*67 FILLER_0_0_29
*68 FILLER_0_0_298
*69 FILLER_0_0_306
*70 FILLER_0_0_309
*71 FILLER_0_0_314
*72 FILLER_0_0_326
*73 FILLER_0_0_334
*74 FILLER_0_0_337
*75 FILLER_0_0_342
*76 FILLER_0_0_354
*77 FILLER_0_0_362
*78 FILLER_0_0_365
*79 FILLER_0_0_370
*80 FILLER_0_0_382
*81 FILLER_0_0_390
*82 FILLER_0_0_393
*83 FILLER_0_0_398
*84 FILLER_0_0_41
*85 FILLER_0_0_48
*86 FILLER_0_0_57
*87 FILLER_0_0_6
*88 FILLER_0_0_69
*89 FILLER_0_0_76
*90 FILLER_0_0_85
*91 FILLER_0_0_97
*92 FILLER_0_10_109
*93 FILLER_0_10_121
*94 FILLER_0_10_133
*95 FILLER_0_10_139
*96 FILLER_0_10_141
*97 FILLER_0_10_15
*98 FILLER_0_10_153
*99 FILLER_0_10_165
*100 FILLER_0_10_177
*101 FILLER_0_10_189
*102 FILLER_0_10_195
*103 FILLER_0_10_197
*104 FILLER_0_10_209
*105 FILLER_0_10_221
*106 FILLER_0_10_233
*107 FILLER_0_10_245
*108 FILLER_0_10_251
*109 FILLER_0_10_253
*110 FILLER_0_10_265
*111 FILLER_0_10_27
*112 FILLER_0_10_277
*113 FILLER_0_10_289
*114 FILLER_0_10_29
*115 FILLER_0_10_3
*116 FILLER_0_10_301
*117 FILLER_0_10_307
*118 FILLER_0_10_309
*119 FILLER_0_10_321
*120 FILLER_0_10_333
*121 FILLER_0_10_345
*122 FILLER_0_10_357
*123 FILLER_0_10_363
*124 FILLER_0_10_365
*125 FILLER_0_10_377
*126 FILLER_0_10_389
*127 FILLER_0_10_401
*128 FILLER_0_10_41
*129 FILLER_0_10_53
*130 FILLER_0_10_65
*131 FILLER_0_10_77
*132 FILLER_0_10_83
*133 FILLER_0_10_85
*134 FILLER_0_10_97
*135 FILLER_0_11_105
*136 FILLER_0_11_111
*137 FILLER_0_11_113
*138 FILLER_0_11_125
*139 FILLER_0_11_137
*140 FILLER_0_11_149
*141 FILLER_0_11_161
*142 FILLER_0_11_167
*143 FILLER_0_11_169
*144 FILLER_0_11_18
*145 FILLER_0_11_181
*146 FILLER_0_11_193
*147 FILLER_0_11_205
*148 FILLER_0_11_217
*149 FILLER_0_11_223
*150 FILLER_0_11_225
*151 FILLER_0_11_237
*152 FILLER_0_11_249
*153 FILLER_0_11_261
*154 FILLER_0_11_273
*155 FILLER_0_11_279
*156 FILLER_0_11_281
*157 FILLER_0_11_293
*158 FILLER_0_11_30
*159 FILLER_0_11_305
*160 FILLER_0_11_317
*161 FILLER_0_11_329
*162 FILLER_0_11_335
*163 FILLER_0_11_337
*164 FILLER_0_11_349
*165 FILLER_0_11_361
*166 FILLER_0_11_373
*167 FILLER_0_11_385
*168 FILLER_0_11_391
*169 FILLER_0_11_393
*170 FILLER_0_11_405
*171 FILLER_0_11_42
*172 FILLER_0_11_54
*173 FILLER_0_11_57
*174 FILLER_0_11_6
*175 FILLER_0_11_69
*176 FILLER_0_11_81
*177 FILLER_0_11_93
*178 FILLER_0_12_109
*179 FILLER_0_12_121
*180 FILLER_0_12_133
*181 FILLER_0_12_139
*182 FILLER_0_12_141
*183 FILLER_0_12_15
*184 FILLER_0_12_153
*185 FILLER_0_12_165
*186 FILLER_0_12_177
*187 FILLER_0_12_189
*188 FILLER_0_12_195
*189 FILLER_0_12_197
*190 FILLER_0_12_209
*191 FILLER_0_12_221
*192 FILLER_0_12_233
*193 FILLER_0_12_245
*194 FILLER_0_12_251
*195 FILLER_0_12_253
*196 FILLER_0_12_265
*197 FILLER_0_12_27
*198 FILLER_0_12_277
*199 FILLER_0_12_289
*200 FILLER_0_12_29
*201 FILLER_0_12_3
*202 FILLER_0_12_301
*203 FILLER_0_12_307
*204 FILLER_0_12_309
*205 FILLER_0_12_321
*206 FILLER_0_12_333
*207 FILLER_0_12_345
*208 FILLER_0_12_357
*209 FILLER_0_12_363
*210 FILLER_0_12_365
*211 FILLER_0_12_377
*212 FILLER_0_12_389
*213 FILLER_0_12_401
*214 FILLER_0_12_41
*215 FILLER_0_12_53
*216 FILLER_0_12_65
*217 FILLER_0_12_77
*218 FILLER_0_12_83
*219 FILLER_0_12_85
*220 FILLER_0_12_97
*221 FILLER_0_13_109
*222 FILLER_0_13_113
*223 FILLER_0_13_121
*224 FILLER_0_13_125
*225 FILLER_0_13_13
*226 FILLER_0_13_137
*227 FILLER_0_13_141
*228 FILLER_0_13_153
*229 FILLER_0_13_160
*230 FILLER_0_13_169
*231 FILLER_0_13_181
*232 FILLER_0_13_188
*233 FILLER_0_13_197
*234 FILLER_0_13_209
*235 FILLER_0_13_216
*236 FILLER_0_13_225
*237 FILLER_0_13_237
*238 FILLER_0_13_244
*239 FILLER_0_13_25
*240 FILLER_0_13_253
*241 FILLER_0_13_265
*242 FILLER_0_13_272
*243 FILLER_0_13_281
*244 FILLER_0_13_29
*245 FILLER_0_13_293
*246 FILLER_0_13_301
*247 FILLER_0_13_307
*248 FILLER_0_13_309
*249 FILLER_0_13_321
*250 FILLER_0_13_329
*251 FILLER_0_13_335
*252 FILLER_0_13_337
*253 FILLER_0_13_349
*254 FILLER_0_13_357
*255 FILLER_0_13_363
*256 FILLER_0_13_365
*257 FILLER_0_13_37
*258 FILLER_0_13_377
*259 FILLER_0_13_385
*260 FILLER_0_13_391
*261 FILLER_0_13_393
*262 FILLER_0_13_401
*263 FILLER_0_13_41
*264 FILLER_0_13_53
*265 FILLER_0_13_57
*266 FILLER_0_13_6
*267 FILLER_0_13_65
*268 FILLER_0_13_69
*269 FILLER_0_13_81
*270 FILLER_0_13_85
*271 FILLER_0_13_93
*272 FILLER_0_13_97
*273 FILLER_0_1_105
*274 FILLER_0_1_111
*275 FILLER_0_1_113
*276 FILLER_0_1_125
*277 FILLER_0_1_137
*278 FILLER_0_1_149
*279 FILLER_0_1_161
*280 FILLER_0_1_167
*281 FILLER_0_1_169
*282 FILLER_0_1_18
*283 FILLER_0_1_181
*284 FILLER_0_1_193
*285 FILLER_0_1_205
*286 FILLER_0_1_217
*287 FILLER_0_1_223
*288 FILLER_0_1_225
*289 FILLER_0_1_237
*290 FILLER_0_1_249
*291 FILLER_0_1_261
*292 FILLER_0_1_273
*293 FILLER_0_1_279
*294 FILLER_0_1_281
*295 FILLER_0_1_293
*296 FILLER_0_1_30
*297 FILLER_0_1_305
*298 FILLER_0_1_317
*299 FILLER_0_1_329
*300 FILLER_0_1_335
*301 FILLER_0_1_337
*302 FILLER_0_1_349
*303 FILLER_0_1_361
*304 FILLER_0_1_373
*305 FILLER_0_1_385
*306 FILLER_0_1_391
*307 FILLER_0_1_393
*308 FILLER_0_1_405
*309 FILLER_0_1_42
*310 FILLER_0_1_54
*311 FILLER_0_1_57
*312 FILLER_0_1_6
*313 FILLER_0_1_69
*314 FILLER_0_1_81
*315 FILLER_0_1_93
*316 FILLER_0_2_109
*317 FILLER_0_2_121
*318 FILLER_0_2_133
*319 FILLER_0_2_139
*320 FILLER_0_2_141
*321 FILLER_0_2_15
*322 FILLER_0_2_153
*323 FILLER_0_2_165
*324 FILLER_0_2_177
*325 FILLER_0_2_189
*326 FILLER_0_2_195
*327 FILLER_0_2_197
*328 FILLER_0_2_209
*329 FILLER_0_2_221
*330 FILLER_0_2_233
*331 FILLER_0_2_245
*332 FILLER_0_2_251
*333 FILLER_0_2_253
*334 FILLER_0_2_265
*335 FILLER_0_2_27
*336 FILLER_0_2_277
*337 FILLER_0_2_289
*338 FILLER_0_2_29
*339 FILLER_0_2_3
*340 FILLER_0_2_301
*341 FILLER_0_2_307
*342 FILLER_0_2_309
*343 FILLER_0_2_321
*344 FILLER_0_2_333
*345 FILLER_0_2_345
*346 FILLER_0_2_357
*347 FILLER_0_2_363
*348 FILLER_0_2_365
*349 FILLER_0_2_377
*350 FILLER_0_2_389
*351 FILLER_0_2_401
*352 FILLER_0_2_41
*353 FILLER_0_2_53
*354 FILLER_0_2_65
*355 FILLER_0_2_77
*356 FILLER_0_2_83
*357 FILLER_0_2_85
*358 FILLER_0_2_97
*359 FILLER_0_3_105
*360 FILLER_0_3_111
*361 FILLER_0_3_113
*362 FILLER_0_3_125
*363 FILLER_0_3_137
*364 FILLER_0_3_149
*365 FILLER_0_3_15
*366 FILLER_0_3_161
*367 FILLER_0_3_167
*368 FILLER_0_3_169
*369 FILLER_0_3_181
*370 FILLER_0_3_193
*371 FILLER_0_3_205
*372 FILLER_0_3_217
*373 FILLER_0_3_223
*374 FILLER_0_3_225
*375 FILLER_0_3_237
*376 FILLER_0_3_249
*377 FILLER_0_3_261
*378 FILLER_0_3_27
*379 FILLER_0_3_273
*380 FILLER_0_3_279
*381 FILLER_0_3_281
*382 FILLER_0_3_293
*383 FILLER_0_3_3
*384 FILLER_0_3_305
*385 FILLER_0_3_317
*386 FILLER_0_3_329
*387 FILLER_0_3_335
*388 FILLER_0_3_337
*389 FILLER_0_3_349
*390 FILLER_0_3_361
*391 FILLER_0_3_373
*392 FILLER_0_3_385
*393 FILLER_0_3_39
*394 FILLER_0_3_391
*395 FILLER_0_3_393
*396 FILLER_0_3_405
*397 FILLER_0_3_51
*398 FILLER_0_3_55
*399 FILLER_0_3_57
*400 FILLER_0_3_69
*401 FILLER_0_3_81
*402 FILLER_0_3_93
*403 FILLER_0_4_109
*404 FILLER_0_4_121
*405 FILLER_0_4_133
*406 FILLER_0_4_139
*407 FILLER_0_4_141
*408 FILLER_0_4_15
*409 FILLER_0_4_153
*410 FILLER_0_4_165
*411 FILLER_0_4_177
*412 FILLER_0_4_189
*413 FILLER_0_4_195
*414 FILLER_0_4_197
*415 FILLER_0_4_209
*416 FILLER_0_4_221
*417 FILLER_0_4_233
*418 FILLER_0_4_245
*419 FILLER_0_4_251
*420 FILLER_0_4_253
*421 FILLER_0_4_265
*422 FILLER_0_4_27
*423 FILLER_0_4_277
*424 FILLER_0_4_289
*425 FILLER_0_4_29
*426 FILLER_0_4_3
*427 FILLER_0_4_301
*428 FILLER_0_4_307
*429 FILLER_0_4_309
*430 FILLER_0_4_321
*431 FILLER_0_4_333
*432 FILLER_0_4_345
*433 FILLER_0_4_357
*434 FILLER_0_4_363
*435 FILLER_0_4_365
*436 FILLER_0_4_377
*437 FILLER_0_4_389
*438 FILLER_0_4_401
*439 FILLER_0_4_41
*440 FILLER_0_4_53
*441 FILLER_0_4_65
*442 FILLER_0_4_77
*443 FILLER_0_4_83
*444 FILLER_0_4_85
*445 FILLER_0_4_97
*446 FILLER_0_5_105
*447 FILLER_0_5_111
*448 FILLER_0_5_113
*449 FILLER_0_5_125
*450 FILLER_0_5_137
*451 FILLER_0_5_149
*452 FILLER_0_5_15
*453 FILLER_0_5_161
*454 FILLER_0_5_167
*455 FILLER_0_5_169
*456 FILLER_0_5_181
*457 FILLER_0_5_193
*458 FILLER_0_5_205
*459 FILLER_0_5_217
*460 FILLER_0_5_223
*461 FILLER_0_5_225
*462 FILLER_0_5_237
*463 FILLER_0_5_249
*464 FILLER_0_5_261
*465 FILLER_0_5_27
*466 FILLER_0_5_273
*467 FILLER_0_5_279
*468 FILLER_0_5_281
*469 FILLER_0_5_293
*470 FILLER_0_5_3
*471 FILLER_0_5_305
*472 FILLER_0_5_317
*473 FILLER_0_5_329
*474 FILLER_0_5_335
*475 FILLER_0_5_337
*476 FILLER_0_5_349
*477 FILLER_0_5_361
*478 FILLER_0_5_373
*479 FILLER_0_5_385
*480 FILLER_0_5_39
*481 FILLER_0_5_391
*482 FILLER_0_5_393
*483 FILLER_0_5_405
*484 FILLER_0_5_51
*485 FILLER_0_5_55
*486 FILLER_0_5_57
*487 FILLER_0_5_69
*488 FILLER_0_5_81
*489 FILLER_0_5_93
*490 FILLER_0_6_109
*491 FILLER_0_6_121
*492 FILLER_0_6_133
*493 FILLER_0_6_139
*494 FILLER_0_6_141
*495 FILLER_0_6_153
*496 FILLER_0_6_165
*497 FILLER_0_6_177
*498 FILLER_0_6_18
*499 FILLER_0_6_189
*500 FILLER_0_6_195
*501 FILLER_0_6_197
*502 FILLER_0_6_209
*503 FILLER_0_6_221
*504 FILLER_0_6_233
*505 FILLER_0_6_245
*506 FILLER_0_6_251
*507 FILLER_0_6_253
*508 FILLER_0_6_26
*509 FILLER_0_6_265
*510 FILLER_0_6_277
*511 FILLER_0_6_289
*512 FILLER_0_6_29
*513 FILLER_0_6_301
*514 FILLER_0_6_307
*515 FILLER_0_6_309
*516 FILLER_0_6_321
*517 FILLER_0_6_333
*518 FILLER_0_6_345
*519 FILLER_0_6_357
*520 FILLER_0_6_363
*521 FILLER_0_6_365
*522 FILLER_0_6_377
*523 FILLER_0_6_389
*524 FILLER_0_6_401
*525 FILLER_0_6_41
*526 FILLER_0_6_53
*527 FILLER_0_6_6
*528 FILLER_0_6_65
*529 FILLER_0_6_77
*530 FILLER_0_6_83
*531 FILLER_0_6_85
*532 FILLER_0_6_97
*533 FILLER_0_7_105
*534 FILLER_0_7_111
*535 FILLER_0_7_113
*536 FILLER_0_7_125
*537 FILLER_0_7_137
*538 FILLER_0_7_149
*539 FILLER_0_7_15
*540 FILLER_0_7_161
*541 FILLER_0_7_167
*542 FILLER_0_7_169
*543 FILLER_0_7_181
*544 FILLER_0_7_193
*545 FILLER_0_7_205
*546 FILLER_0_7_217
*547 FILLER_0_7_223
*548 FILLER_0_7_225
*549 FILLER_0_7_237
*550 FILLER_0_7_249
*551 FILLER_0_7_261
*552 FILLER_0_7_27
*553 FILLER_0_7_273
*554 FILLER_0_7_279
*555 FILLER_0_7_281
*556 FILLER_0_7_293
*557 FILLER_0_7_3
*558 FILLER_0_7_305
*559 FILLER_0_7_317
*560 FILLER_0_7_329
*561 FILLER_0_7_335
*562 FILLER_0_7_337
*563 FILLER_0_7_349
*564 FILLER_0_7_361
*565 FILLER_0_7_373
*566 FILLER_0_7_385
*567 FILLER_0_7_39
*568 FILLER_0_7_391
*569 FILLER_0_7_393
*570 FILLER_0_7_401
*571 FILLER_0_7_51
*572 FILLER_0_7_55
*573 FILLER_0_7_57
*574 FILLER_0_7_69
*575 FILLER_0_7_81
*576 FILLER_0_7_93
*577 FILLER_0_8_109
*578 FILLER_0_8_121
*579 FILLER_0_8_133
*580 FILLER_0_8_139
*581 FILLER_0_8_141
*582 FILLER_0_8_15
*583 FILLER_0_8_153
*584 FILLER_0_8_165
*585 FILLER_0_8_177
*586 FILLER_0_8_189
*587 FILLER_0_8_195
*588 FILLER_0_8_197
*589 FILLER_0_8_209
*590 FILLER_0_8_221
*591 FILLER_0_8_233
*592 FILLER_0_8_245
*593 FILLER_0_8_251
*594 FILLER_0_8_253
*595 FILLER_0_8_265
*596 FILLER_0_8_27
*597 FILLER_0_8_277
*598 FILLER_0_8_289
*599 FILLER_0_8_29
*600 FILLER_0_8_3
*601 FILLER_0_8_301
*602 FILLER_0_8_307
*603 FILLER_0_8_309
*604 FILLER_0_8_321
*605 FILLER_0_8_333
*606 FILLER_0_8_345
*607 FILLER_0_8_357
*608 FILLER_0_8_363
*609 FILLER_0_8_365
*610 FILLER_0_8_377
*611 FILLER_0_8_389
*612 FILLER_0_8_401
*613 FILLER_0_8_41
*614 FILLER_0_8_53
*615 FILLER_0_8_65
*616 FILLER_0_8_77
*617 FILLER_0_8_83
*618 FILLER_0_8_85
*619 FILLER_0_8_97
*620 FILLER_0_9_105
*621 FILLER_0_9_111
*622 FILLER_0_9_113
*623 FILLER_0_9_125
*624 FILLER_0_9_137
*625 FILLER_0_9_149
*626 FILLER_0_9_15
*627 FILLER_0_9_161
*628 FILLER_0_9_167
*629 FILLER_0_9_169
*630 FILLER_0_9_181
*631 FILLER_0_9_193
*632 FILLER_0_9_205
*633 FILLER_0_9_217
*634 FILLER_0_9_223
*635 FILLER_0_9_225
*636 FILLER_0_9_237
*637 FILLER_0_9_249
*638 FILLER_0_9_261
*639 FILLER_0_9_27
*640 FILLER_0_9_273
*641 FILLER_0_9_279
*642 FILLER_0_9_281
*643 FILLER_0_9_293
*644 FILLER_0_9_3
*645 FILLER_0_9_305
*646 FILLER_0_9_317
*647 FILLER_0_9_329
*648 FILLER_0_9_335
*649 FILLER_0_9_337
*650 FILLER_0_9_349
*651 FILLER_0_9_361
*652 FILLER_0_9_373
*653 FILLER_0_9_385
*654 FILLER_0_9_39
*655 FILLER_0_9_391
*656 FILLER_0_9_393
*657 FILLER_0_9_405
*658 FILLER_0_9_51
*659 FILLER_0_9_55
*660 FILLER_0_9_57
*661 FILLER_0_9_69
*662 FILLER_0_9_81
*663 FILLER_0_9_93
*664 PHY_0
*665 PHY_1
*666 PHY_10
*667 PHY_11
*668 PHY_12
*669 PHY_13
*670 PHY_14
*671 PHY_15
*672 PHY_16
*673 PHY_17
*674 PHY_18
*675 PHY_19
*676 PHY_2
*677 PHY_20
*678 PHY_21
*679 PHY_22
*680 PHY_23
*681 PHY_24
*682 PHY_25
*683 PHY_26
*684 PHY_27
*685 PHY_3
*686 PHY_4
*687 PHY_5
*688 PHY_6
*689 PHY_7
*690 PHY_8
*691 PHY_9
*692 TAP_100
*693 TAP_101
*694 TAP_102
*695 TAP_103
*696 TAP_104
*697 TAP_105
*698 TAP_106
*699 TAP_107
*700 TAP_108
*701 TAP_109
*702 TAP_110
*703 TAP_111
*704 TAP_112
*705 TAP_113
*706 TAP_114
*707 TAP_115
*708 TAP_116
*709 TAP_117
*710 TAP_118
*711 TAP_119
*712 TAP_120
*713 TAP_121
*714 TAP_122
*715 TAP_123
*716 TAP_124
*717 TAP_125
*718 TAP_126
*719 TAP_127
*720 TAP_128
*721 TAP_129
*722 TAP_130
*723 TAP_131
*724 TAP_132
*725 TAP_133
*726 TAP_134
*727 TAP_135
*728 TAP_136
*729 TAP_137
*730 TAP_138
*731 TAP_139
*732 TAP_28
*733 TAP_29
*734 TAP_30
*735 TAP_31
*736 TAP_32
*737 TAP_33
*738 TAP_34
*739 TAP_35
*740 TAP_36
*741 TAP_37
*742 TAP_38
*743 TAP_39
*744 TAP_40
*745 TAP_41
*746 TAP_42
*747 TAP_43
*748 TAP_44
*749 TAP_45
*750 TAP_46
*751 TAP_47
*752 TAP_48
*753 TAP_49
*754 TAP_50
*755 TAP_51
*756 TAP_52
*757 TAP_53
*758 TAP_54
*759 TAP_55
*760 TAP_56
*761 TAP_57
*762 TAP_58
*763 TAP_59
*764 TAP_60
*765 TAP_61
*766 TAP_62
*767 TAP_63
*768 TAP_64
*769 TAP_65
*770 TAP_66
*771 TAP_67
*772 TAP_68
*773 TAP_69
*774 TAP_70
*775 TAP_71
*776 TAP_72
*777 TAP_73
*778 TAP_74
*779 TAP_75
*780 TAP_76
*781 TAP_77
*782 TAP_78
*783 TAP_79
*784 TAP_80
*785 TAP_81
*786 TAP_82
*787 TAP_83
*788 TAP_84
*789 TAP_85
*790 TAP_86
*791 TAP_87
*792 TAP_88
*793 TAP_89
*794 TAP_90
*795 TAP_91
*796 TAP_92
*797 TAP_93
*798 TAP_94
*799 TAP_95
*800 TAP_96
*801 TAP_97
*802 TAP_98
*803 TAP_99
*804 ioenb_1
*805 ioenb_10
*806 ioenb_11
*807 ioenb_12
*808 ioenb_13
*809 ioenb_14
*810 ioenb_15
*811 ioenb_16
*812 ioenb_17
*813 ioenb_18
*814 ioenb_19
*815 ioenb_2
*816 ioenb_20
*817 ioenb_21
*818 ioenb_22
*819 ioenb_23
*820 ioenb_24
*821 ioenb_25
*822 ioenb_26
*823 ioenb_27
*824 ioenb_28
*825 ioenb_29
*826 ioenb_3
*827 ioenb_30
*828 ioenb_31
*829 ioenb_32
*830 ioenb_33
*831 ioenb_34
*832 ioenb_35
*833 ioenb_36
*834 ioenb_37
*835 ioenb_38
*836 ioenb_4
*837 ioenb_5
*838 ioenb_6
*839 ioenb_7
*840 ioenb_8
*841 ioenb_9

*PORTS
io_oeb[0] O
io_oeb[10] O
io_oeb[11] O
io_oeb[12] O
io_oeb[13] O
io_oeb[14] O
io_oeb[15] O
io_oeb[16] O
io_oeb[17] O
io_oeb[18] O
io_oeb[19] O
io_oeb[1] O
io_oeb[20] O
io_oeb[21] O
io_oeb[22] O
io_oeb[23] O
io_oeb[24] O
io_oeb[25] O
io_oeb[26] O
io_oeb[27] O
io_oeb[28] O
io_oeb[29] O
io_oeb[2] O
io_oeb[30] O
io_oeb[31] O
io_oeb[32] O
io_oeb[33] O
io_oeb[34] O
io_oeb[35] O
io_oeb[36] O
io_oeb[37] O
io_oeb[3] O
io_oeb[4] O
io_oeb[5] O
io_oeb[6] O
io_oeb[7] O
io_oeb[8] O
io_oeb[9] O

*D_NET *1 0.000763257
*CONN
*P io_oeb[0] O
*I *810:LO O *D sky130_fd_sc_hd__conb_1
*CAP
1 io_oeb[0] 0.000381629
2 *810:LO 0.000381629
*RES
1 *810:LO io_oeb[0] 10.455 
*END

*D_NET *2 0.00044754
*CONN
*P io_oeb[10] O
*I *815:LO O *D sky130_fd_sc_hd__conb_1
*CAP
1 io_oeb[10] 0.00022377
2 *815:LO 0.00022377
*RES
1 *815:LO io_oeb[10] 5.10177 
*END

*D_NET *3 0.000763257
*CONN
*P io_oeb[11] O
*I *826:LO O *D sky130_fd_sc_hd__conb_1
*CAP
1 io_oeb[11] 0.000381628
2 *826:LO 0.000381628
*RES
1 *826:LO io_oeb[11] 10.455 
*END

*D_NET *4 0.000752077
*CONN
*P io_oeb[12] O
*I *820:HI O *D sky130_fd_sc_hd__conb_1
*CAP
1 io_oeb[12] 0.000376039
2 *820:HI 0.000376039
*RES
1 *820:HI io_oeb[12] 10.2 
*END

*D_NET *5 0.000765949
*CONN
*P io_oeb[13] O
*I *836:LO O *D sky130_fd_sc_hd__conb_1
*CAP
1 io_oeb[13] 0.000382975
2 *836:LO 0.000382975
*RES
1 *836:LO io_oeb[13] 10.455 
*END

*D_NET *6 0.000763257
*CONN
*P io_oeb[14] O
*I *837:LO O *D sky130_fd_sc_hd__conb_1
*CAP
1 io_oeb[14] 0.000381628
2 *837:LO 0.000381628
*RES
1 *837:LO io_oeb[14] 10.455 
*END

*D_NET *7 0.000763257
*CONN
*P io_oeb[15] O
*I *838:LO O *D sky130_fd_sc_hd__conb_1
*CAP
1 io_oeb[15] 0.000381628
2 *838:LO 0.000381628
*RES
1 *838:LO io_oeb[15] 10.455 
*END

*D_NET *8 0.000763257
*CONN
*P io_oeb[16] O
*I *839:LO O *D sky130_fd_sc_hd__conb_1
*CAP
1 io_oeb[16] 0.000381629
2 *839:LO 0.000381629
*RES
1 *839:LO io_oeb[16] 10.455 
*END

*D_NET *9 0.000763257
*CONN
*P io_oeb[17] O
*I *840:LO O *D sky130_fd_sc_hd__conb_1
*CAP
1 io_oeb[17] 0.000381629
2 *840:LO 0.000381629
*RES
1 *840:LO io_oeb[17] 10.455 
*END

*D_NET *10 0.000763257
*CONN
*P io_oeb[18] O
*I *841:LO O *D sky130_fd_sc_hd__conb_1
*CAP
1 io_oeb[18] 0.000381628
2 *841:LO 0.000381628
*RES
1 *841:LO io_oeb[18] 10.455 
*END

*D_NET *11 0.000523024
*CONN
*P io_oeb[19] O
*I *805:LO O *D sky130_fd_sc_hd__conb_1
*CAP
1 io_oeb[19] 0.000261512
2 *805:LO 0.000261512
*RES
1 *805:LO io_oeb[19] 4.84677 
*END

*D_NET *12 0.000763257
*CONN
*P io_oeb[1] O
*I *811:LO O *D sky130_fd_sc_hd__conb_1
*CAP
1 io_oeb[1] 0.000381628
2 *811:LO 0.000381628
*RES
1 *811:LO io_oeb[1] 10.455 
*END

*D_NET *13 0.000763257
*CONN
*P io_oeb[20] O
*I *806:LO O *D sky130_fd_sc_hd__conb_1
*CAP
1 io_oeb[20] 0.000381628
2 *806:LO 0.000381628
*RES
1 *806:LO io_oeb[20] 10.455 
*END

*D_NET *14 0.000788444
*CONN
*P io_oeb[21] O
*I *807:LO O *D sky130_fd_sc_hd__conb_1
*CAP
1 io_oeb[21] 0.000394222
2 *807:LO 0.000394222
3 io_oeb[21] io_oeb[7] 0
*RES
1 *807:LO io_oeb[21] 10.455 
*END

*D_NET *15 0.000763257
*CONN
*P io_oeb[22] O
*I *808:LO O *D sky130_fd_sc_hd__conb_1
*CAP
1 io_oeb[22] 0.000381629
2 *808:LO 0.000381629
*RES
1 *808:LO io_oeb[22] 10.455 
*END

*D_NET *16 0.00108376
*CONN
*P io_oeb[23] O
*I *809:LO O *D sky130_fd_sc_hd__conb_1
*CAP
1 io_oeb[23] 0.000541878
2 *809:LO 0.000541878
*RES
1 *809:LO io_oeb[23] 10.9668 
*END

*D_NET *17 0.000511853
*CONN
*P io_oeb[24] O
*I *821:HI O *D sky130_fd_sc_hd__conb_1
*CAP
1 io_oeb[24] 0.000255926
2 *821:HI 0.000255926
*RES
1 *821:HI io_oeb[24] 4.84677 
*END

*D_NET *18 0.00137921
*CONN
*P io_oeb[25] O
*I *822:HI O *D sky130_fd_sc_hd__conb_1
*CAP
1 io_oeb[25] 0.000689606
2 *822:HI 0.000689606
3 io_oeb[25] io_oeb[27] 0
*RES
1 *822:HI io_oeb[25] 16.11 
*END

*D_NET *19 0.000735166
*CONN
*P io_oeb[26] O
*I *823:HI O *D sky130_fd_sc_hd__conb_1
*CAP
1 io_oeb[26] 0.000367583
2 *823:HI 0.000367583
*RES
1 *823:HI io_oeb[26] 10.2 
*END

*D_NET *20 0.000488916
*CONN
*P io_oeb[27] O
*I *824:HI O *D sky130_fd_sc_hd__conb_1
*CAP
1 io_oeb[27] 0.000244458
2 *824:HI 0.000244458
3 io_oeb[25] io_oeb[27] 0
*RES
1 *824:HI io_oeb[27] 6.89543 
*END

*D_NET *21 0.000707074
*CONN
*P io_oeb[28] O
*I *825:HI O *D sky130_fd_sc_hd__conb_1
*CAP
1 io_oeb[28] 0.000353537
2 *825:HI 0.000353537
*RES
1 *825:HI io_oeb[28] 9.945 
*END

*D_NET *22 0.000707074
*CONN
*P io_oeb[29] O
*I *827:HI O *D sky130_fd_sc_hd__conb_1
*CAP
1 io_oeb[29] 0.000353537
2 *827:HI 0.000353537
*RES
1 *827:HI io_oeb[29] 9.945 
*END

*D_NET *23 0.000763257
*CONN
*P io_oeb[2] O
*I *812:LO O *D sky130_fd_sc_hd__conb_1
*CAP
1 io_oeb[2] 0.000381629
2 *812:LO 0.000381629
*RES
1 *812:LO io_oeb[2] 10.455 
*END

*D_NET *24 0.000735166
*CONN
*P io_oeb[30] O
*I *828:HI O *D sky130_fd_sc_hd__conb_1
*CAP
1 io_oeb[30] 0.000367583
2 *828:HI 0.000367583
*RES
1 *828:HI io_oeb[30] 10.2 
*END

*D_NET *25 0.000707074
*CONN
*P io_oeb[31] O
*I *829:HI O *D sky130_fd_sc_hd__conb_1
*CAP
1 io_oeb[31] 0.000353537
2 *829:HI 0.000353537
*RES
1 *829:HI io_oeb[31] 9.945 
*END

*D_NET *26 0.000707074
*CONN
*P io_oeb[32] O
*I *830:HI O *D sky130_fd_sc_hd__conb_1
*CAP
1 io_oeb[32] 0.000353537
2 *830:HI 0.000353537
*RES
1 *830:HI io_oeb[32] 9.945 
*END

*D_NET *27 0.000707074
*CONN
*P io_oeb[33] O
*I *831:HI O *D sky130_fd_sc_hd__conb_1
*CAP
1 io_oeb[33] 0.000353537
2 *831:HI 0.000353537
*RES
1 *831:HI io_oeb[33] 9.945 
*END

*D_NET *28 0.000417562
*CONN
*P io_oeb[34] O
*I *832:HI O *D sky130_fd_sc_hd__conb_1
*CAP
1 io_oeb[34] 0.000208781
2 *832:HI 0.000208781
*RES
1 *832:HI io_oeb[34] 4.84677 
*END

*D_NET *29 0.000707074
*CONN
*P io_oeb[35] O
*I *833:HI O *D sky130_fd_sc_hd__conb_1
*CAP
1 io_oeb[35] 0.000353537
2 *833:HI 0.000353537
*RES
1 *833:HI io_oeb[35] 9.945 
*END

*D_NET *30 0.000872488
*CONN
*P io_oeb[36] O
*I *834:HI O *D sky130_fd_sc_hd__conb_1
*CAP
1 io_oeb[36] 0.000436244
2 *834:HI 0.000436244
*RES
1 *834:HI io_oeb[36] 10.74 
*END

*D_NET *31 0.000537867
*CONN
*P io_oeb[37] O
*I *835:HI O *D sky130_fd_sc_hd__conb_1
*CAP
1 io_oeb[37] 0.000268933
2 *835:HI 0.000268933
*RES
1 *835:HI io_oeb[37] 4.84677 
*END

*D_NET *32 0.00111469
*CONN
*P io_oeb[3] O
*I *813:LO O *D sky130_fd_sc_hd__conb_1
*CAP
1 io_oeb[3] 0.000557347
2 *813:LO 0.000557347
*RES
1 *813:LO io_oeb[3] 14.445 
*END

*D_NET *33 0.000763257
*CONN
*P io_oeb[4] O
*I *814:LO O *D sky130_fd_sc_hd__conb_1
*CAP
1 io_oeb[4] 0.000381628
2 *814:LO 0.000381628
*RES
1 *814:LO io_oeb[4] 10.455 
*END

*D_NET *34 0.000763257
*CONN
*P io_oeb[5] O
*I *816:LO O *D sky130_fd_sc_hd__conb_1
*CAP
1 io_oeb[5] 0.000381628
2 *816:LO 0.000381628
*RES
1 *816:LO io_oeb[5] 10.455 
*END

*D_NET *35 0.000763257
*CONN
*P io_oeb[6] O
*I *817:LO O *D sky130_fd_sc_hd__conb_1
*CAP
1 io_oeb[6] 0.000381629
2 *817:LO 0.000381629
*RES
1 *817:LO io_oeb[6] 10.455 
*END

*D_NET *36 0.00236347
*CONN
*P io_oeb[7] O
*I *818:LO O *D sky130_fd_sc_hd__conb_1
*CAP
1 io_oeb[7] 0.00118174
2 *818:LO 0.00118174
3 io_oeb[21] io_oeb[7] 0
*RES
1 *818:LO io_oeb[7] 16.4608 
*END

*D_NET *37 0.000763257
*CONN
*P io_oeb[8] O
*I *819:LO O *D sky130_fd_sc_hd__conb_1
*CAP
1 io_oeb[8] 0.000381628
2 *819:LO 0.000381628
*RES
1 *819:LO io_oeb[8] 10.455 
*END

*D_NET *38 0.000763257
*CONN
*P io_oeb[9] O
*I *804:LO O *D sky130_fd_sc_hd__conb_1
*CAP
1 io_oeb[9] 0.000381629
2 *804:LO 0.000381629
*RES
1 *804:LO io_oeb[9] 10.455 
*END
