*SPEF "ieee 1481-1999"
*DESIGN "sb_0__1_"
*DATE "11:11:11 Fri 11 11, 1111"
*VENDOR "OpenRCX"
*PROGRAM "Parallel Extraction"
*VERSION "1.0"
*DESIGN_FLOW "NAME_SCOPE LOCAL" "PIN_CAP NONE"
*DIVIDER /
*DELIMITER :
*BUS_DELIMITER []
*T_UNIT 1 NS
*C_UNIT 1 PF
*R_UNIT 1 OHM
*L_UNIT 1 HENRY

*NAME_MAP
*1 bottom_left_grid_right_width_0_height_0_subtile_0__pin_inpad_0_
*2 bottom_right_grid_left_width_0_height_0_subtile_0__pin_O_1_
*3 ccff_head
*4 ccff_tail
*5 chanx_right_in[0]
*6 chanx_right_in[1]
*7 chanx_right_in[2]
*8 chanx_right_in[3]
*9 chanx_right_in[4]
*10 chanx_right_in[5]
*11 chanx_right_in[6]
*12 chanx_right_in[7]
*13 chanx_right_in[8]
*14 chanx_right_out[0]
*15 chanx_right_out[1]
*16 chanx_right_out[2]
*17 chanx_right_out[3]
*18 chanx_right_out[4]
*19 chanx_right_out[5]
*20 chanx_right_out[6]
*21 chanx_right_out[7]
*22 net62
*23 chany_bottom_in[0]
*24 chany_bottom_in[1]
*25 chany_bottom_in[2]
*26 chany_bottom_in[3]
*27 chany_bottom_in[4]
*28 chany_bottom_in[5]
*29 chany_bottom_in[6]
*30 chany_bottom_in[7]
*31 chany_bottom_in[8]
*32 chany_bottom_out[0]
*33 chany_bottom_out[1]
*34 chany_bottom_out[2]
*35 chany_bottom_out[3]
*36 chany_bottom_out[4]
*37 chany_bottom_out[5]
*38 chany_bottom_out[6]
*39 chany_bottom_out[7]
*40 chany_bottom_out[8]
*41 chany_top_in[0]
*42 chany_top_in[1]
*43 chany_top_in[2]
*44 chany_top_in[3]
*45 chany_top_in[4]
*46 chany_top_in[5]
*47 chany_top_in[6]
*48 chany_top_in[7]
*49 chany_top_in[8]
*50 chany_top_out[0]
*51 chany_top_out[1]
*52 chany_top_out[2]
*53 chany_top_out[3]
*54 chany_top_out[4]
*55 chany_top_out[5]
*56 chany_top_out[6]
*57 chany_top_out[7]
*58 chany_top_out[8]
*59 prog_clk
*60 right_bottom_grid_top_width_0_height_0_subtile_0__pin_O_2_
*61 right_top_grid_bottom_width_0_height_0_subtile_0__pin_O_0_
*62 top_left_grid_right_width_0_height_0_subtile_0__pin_inpad_0_
*63 top_right_grid_left_width_0_height_0_subtile_0__pin_O_1_
*66 _000_
*67 _001_
*68 _002_
*69 _003_
*70 _004_
*71 _005_
*72 _006_
*73 _007_
*74 _008_
*75 _009_
*76 _010_
*77 _011_
*78 _012_
*79 _013_
*80 _014_
*81 _015_
*82 _016_
*83 _017_
*84 _018_
*85 _019_
*86 _020_
*87 _021_
*88 _022_
*89 _023_
*90 _024_
*91 _025_
*92 _026_
*93 _027_
*94 _028_
*95 _029_
*96 _030_
*97 _031_
*98 _032_
*99 _033_
*100 _034_
*101 _035_
*102 _036_
*103 _037_
*104 _038_
*105 _039_
*106 _040_
*107 _041_
*108 _042_
*109 _043_
*110 _044_
*111 _045_
*112 _046_
*113 _047_
*114 _048_
*115 _049_
*116 _050_
*117 _051_
*118 _052_
*119 _053_
*120 _054_
*121 _055_
*122 _056_
*123 _057_
*124 _058_
*125 _059_
*126 _060_
*127 _061_
*128 _062_
*129 _063_
*130 _064_
*131 _065_
*132 _066_
*133 _067_
*134 _068_
*135 _069_
*136 _070_
*137 _071_
*138 _072_
*139 _073_
*140 _074_
*141 _075_
*142 _076_
*143 _077_
*144 _078_
*145 _079_
*146 _080_
*147 _081_
*148 _082_
*149 _083_
*150 _084_
*151 _085_
*152 _086_
*153 _087_
*154 _088_
*155 _089_
*156 _090_
*157 _091_
*158 _092_
*159 _093_
*160 _094_
*161 _095_
*162 _096_
*163 _097_
*164 _098_
*165 _099_
*166 _100_
*167 _101_
*168 _102_
*169 _103_
*170 _104_
*171 _105_
*172 _106_
*173 _107_
*174 _108_
*175 _109_
*176 _110_
*177 _111_
*178 _112_
*179 _113_
*180 _114_
*181 _115_
*182 _116_
*183 _117_
*184 _118_
*185 _119_
*186 _120_
*187 _121_
*188 _122_
*189 _123_
*190 _124_
*191 _125_
*192 _126_
*193 _127_
*194 _128_
*195 _129_
*196 _130_
*197 _131_
*198 _132_
*199 _133_
*200 _134_
*201 _135_
*202 _136_
*203 _137_
*204 _138_
*205 _139_
*206 _140_
*207 _141_
*208 _142_
*209 _143_
*210 _144_
*211 _145_
*212 _146_
*213 _147_
*214 _148_
*215 _149_
*216 _150_
*217 _151_
*218 _152_
*219 _153_
*220 _154_
*221 _155_
*222 _156_
*223 _157_
*224 _158_
*225 clknet_0_prog_clk
*226 clknet_2_0__leaf_prog_clk
*227 clknet_2_1__leaf_prog_clk
*228 clknet_2_2__leaf_prog_clk
*229 clknet_2_3__leaf_prog_clk
*230 mem_bottom_track_1\.DFF_0_\.D
*231 mem_bottom_track_1\.DFF_0_\.Q
*232 mem_bottom_track_1\.DFF_1_\.Q
*233 mem_bottom_track_1\.DFF_2_\.Q
*234 mem_bottom_track_17\.DFF_0_\.D
*235 mem_bottom_track_17\.DFF_0_\.Q
*236 mem_bottom_track_17\.DFF_1_\.Q
*237 mem_bottom_track_9\.DFF_0_\.Q
*238 mem_bottom_track_9\.DFF_1_\.Q
*239 mem_right_track_10\.DFF_0_\.D
*240 mem_right_track_10\.DFF_0_\.Q
*241 mem_right_track_10\.DFF_1_\.Q
*242 mem_right_track_12\.DFF_0_\.Q
*243 mem_right_track_12\.DFF_1_\.Q
*244 mem_right_track_14\.DFF_0_\.Q
*245 mem_right_track_2\.DFF_0_\.D
*246 mem_right_track_2\.DFF_0_\.Q
*247 mem_right_track_2\.DFF_1_\.Q
*248 mem_right_track_4\.DFF_0_\.Q
*249 mem_right_track_4\.DFF_1_\.Q
*250 mem_right_track_6\.DFF_0_\.Q
*251 mem_right_track_6\.DFF_1_\.Q
*252 mem_right_track_8\.DFF_0_\.Q
*253 mem_top_track_0\.DFF_0_\.Q
*254 mem_top_track_0\.DFF_1_\.Q
*255 mem_top_track_0\.DFF_2_\.Q
*256 mem_top_track_16\.DFF_0_\.D
*257 mem_top_track_16\.DFF_0_\.Q
*258 mem_top_track_16\.DFF_1_\.Q
*259 mem_top_track_8\.DFF_0_\.Q
*260 mem_top_track_8\.DFF_1_\.Q
*261 mux_bottom_track_1\.INVTX1_0_\.out
*262 mux_bottom_track_1\.INVTX1_1_\.out
*263 mux_bottom_track_1\.INVTX1_2_\.out
*264 mux_bottom_track_1\.INVTX1_3_\.out
*265 mux_bottom_track_1\.INVTX1_4_\.out
*266 mux_bottom_track_1\.INVTX1_5_\.out
*267 mux_bottom_track_1\.mux_l1_in_0_\.TGATE_0_\.out
*268 mux_bottom_track_1\.mux_l1_in_1_\.TGATE_0_\.out
*269 mux_bottom_track_1\.mux_l1_in_2_\.TGATE_0_\.out
*270 mux_bottom_track_1\.mux_l2_in_0_\.TGATE_0_\.out
*271 mux_bottom_track_1\.mux_l2_in_1_\.TGATE_0_\.out
*272 mux_bottom_track_1\.mux_l3_in_0_\.TGATE_0_\.out
*273 mux_bottom_track_17\.INVTX1_0_\.out
*274 mux_bottom_track_17\.INVTX1_1_\.out
*275 mux_bottom_track_17\.INVTX1_2_\.out
*276 mux_bottom_track_17\.INVTX1_3_\.out
*277 mux_bottom_track_17\.INVTX1_4_\.out
*278 mux_bottom_track_17\.mux_l1_in_0_\.TGATE_0_\.out
*279 mux_bottom_track_17\.mux_l1_in_1_\.TGATE_0_\.out
*280 mux_bottom_track_17\.mux_l2_in_0_\.TGATE_0_\.out
*281 mux_bottom_track_17\.mux_l2_in_1_\.TGATE_0_\.out
*282 mux_bottom_track_17\.mux_l3_in_0_\.TGATE_0_\.out
*283 mux_bottom_track_9\.INVTX1_0_\.out
*284 mux_bottom_track_9\.INVTX1_1_\.out
*285 mux_bottom_track_9\.INVTX1_2_\.out
*286 mux_bottom_track_9\.INVTX1_3_\.out
*287 mux_bottom_track_9\.INVTX1_4_\.out
*288 mux_bottom_track_9\.INVTX1_5_\.out
*289 mux_bottom_track_9\.mux_l1_in_0_\.TGATE_0_\.out
*290 mux_bottom_track_9\.mux_l1_in_1_\.TGATE_0_\.out
*291 mux_bottom_track_9\.mux_l1_in_2_\.TGATE_0_\.out
*292 mux_bottom_track_9\.mux_l2_in_0_\.TGATE_0_\.out
*293 mux_bottom_track_9\.mux_l2_in_1_\.TGATE_0_\.out
*294 mux_bottom_track_9\.mux_l3_in_0_\.TGATE_0_\.out
*295 mux_right_track_10\.INVTX1_1_\.out
*296 mux_right_track_10\.INVTX1_2_\.out
*297 mux_right_track_10\.mux_l1_in_0_\.TGATE_0_\.out
*298 mux_right_track_10\.mux_l1_in_1_\.TGATE_0_\.out
*299 mux_right_track_10\.mux_l2_in_0_\.TGATE_0_\.out
*300 mux_right_track_12\.INVTX1_1_\.out
*301 mux_right_track_12\.INVTX1_2_\.out
*302 mux_right_track_12\.mux_l1_in_0_\.TGATE_0_\.out
*303 mux_right_track_12\.mux_l1_in_1_\.TGATE_0_\.out
*304 mux_right_track_12\.mux_l2_in_0_\.TGATE_0_\.out
*305 mux_right_track_14\.INVTX1_0_\.out
*306 mux_right_track_14\.INVTX1_1_\.out
*307 mux_right_track_14\.mux_l1_in_0_\.TGATE_0_\.out
*308 mux_right_track_14\.mux_l2_in_0_\.TGATE_0_\.out
*309 mux_right_track_2\.INVTX1_1_\.out
*310 mux_right_track_2\.INVTX1_2_\.out
*311 mux_right_track_2\.mux_l1_in_0_\.TGATE_0_\.out
*312 mux_right_track_2\.mux_l1_in_1_\.TGATE_0_\.out
*313 mux_right_track_2\.mux_l2_in_0_\.TGATE_0_\.out
*314 mux_right_track_4\.INVTX1_1_\.out
*315 mux_right_track_4\.INVTX1_2_\.out
*316 mux_right_track_4\.mux_l1_in_0_\.TGATE_0_\.out
*317 mux_right_track_4\.mux_l1_in_1_\.TGATE_0_\.out
*318 mux_right_track_4\.mux_l2_in_0_\.TGATE_0_\.out
*319 mux_right_track_6\.INVTX1_1_\.out
*320 mux_right_track_6\.INVTX1_2_\.out
*321 mux_right_track_6\.mux_l1_in_0_\.TGATE_0_\.out
*322 mux_right_track_6\.mux_l1_in_1_\.TGATE_0_\.out
*323 mux_right_track_6\.mux_l2_in_0_\.TGATE_0_\.out
*324 mux_right_track_8\.INVTX1_1_\.out
*325 mux_right_track_8\.mux_l1_in_0_\.TGATE_0_\.out
*326 mux_right_track_8\.mux_l2_in_0_\.TGATE_0_\.out
*327 mux_top_track_0\.INVTX1_0_\.out
*328 mux_top_track_0\.mux_l1_in_0_\.TGATE_0_\.out
*329 mux_top_track_0\.mux_l1_in_1_\.TGATE_0_\.out
*330 mux_top_track_0\.mux_l1_in_2_\.TGATE_0_\.out
*331 mux_top_track_0\.mux_l2_in_0_\.TGATE_0_\.out
*332 mux_top_track_0\.mux_l2_in_1_\.TGATE_0_\.out
*333 mux_top_track_0\.mux_l3_in_0_\.TGATE_0_\.out
*334 mux_top_track_16\.mux_l1_in_0_\.TGATE_0_\.out
*335 mux_top_track_16\.mux_l1_in_1_\.TGATE_0_\.out
*336 mux_top_track_16\.mux_l2_in_0_\.TGATE_0_\.out
*337 mux_top_track_16\.mux_l2_in_1_\.TGATE_0_\.out
*338 mux_top_track_16\.mux_l3_in_0_\.TGATE_0_\.out
*339 mux_top_track_8\.INVTX1_0_\.out
*340 mux_top_track_8\.mux_l1_in_0_\.TGATE_0_\.out
*341 mux_top_track_8\.mux_l1_in_1_\.TGATE_0_\.out
*342 mux_top_track_8\.mux_l1_in_2_\.TGATE_0_\.out
*343 mux_top_track_8\.mux_l2_in_0_\.TGATE_0_\.out
*344 mux_top_track_8\.mux_l2_in_1_\.TGATE_0_\.out
*345 mux_top_track_8\.mux_l3_in_0_\.TGATE_0_\.out
*346 net1
*347 net10
*348 net100
*349 net101
*350 net102
*351 net103
*352 net104
*353 net105
*354 net106
*355 net11
*356 net12
*357 net13
*358 net14
*359 net15
*360 net16
*361 net17
*362 net18
*363 net19
*364 net2
*365 net20
*366 net21
*367 net22
*368 net23
*369 net24
*370 net25
*371 net26
*372 net27
*373 net28
*374 net29
*375 net3
*376 net30
*377 net31
*378 net32
*379 net33
*380 net34
*381 net35
*382 net36
*383 net37
*384 net38
*385 net39
*386 net4
*387 net40
*388 net41
*389 net42
*390 net43
*391 net44
*392 net45
*393 net46
*394 net47
*395 net48
*396 net49
*397 net5
*398 net50
*399 net51
*400 net52
*401 net53
*402 net54
*403 net55
*404 net56
*405 net57
*406 net58
*407 net59
*408 net6
*409 net60
*410 net61
*411 net63
*412 net64
*413 net65
*414 net66
*415 net67
*416 net68
*417 net69
*418 net7
*419 net70
*420 net71
*421 net72
*422 net73
*423 net74
*424 net75
*425 net76
*426 net77
*427 net78
*428 net79
*429 net8
*430 net80
*431 net81
*432 net82
*433 net83
*434 net84
*435 net85
*436 net86
*437 net87
*438 net88
*439 net89
*440 net9
*441 net90
*442 net91
*443 net92
*444 net93
*445 net94
*446 net95
*447 net96
*448 net97
*449 net98
*450 net99
*451 FILLER_0_0_113
*452 FILLER_0_0_12
*453 FILLER_0_0_132
*454 FILLER_0_0_141
*455 FILLER_0_0_145
*456 FILLER_0_0_155
*457 FILLER_0_0_159
*458 FILLER_0_0_166
*459 FILLER_0_0_17
*460 FILLER_0_0_25
*461 FILLER_0_0_29
*462 FILLER_0_0_33
*463 FILLER_0_0_45
*464 FILLER_0_0_49
*465 FILLER_0_0_55
*466 FILLER_0_0_57
*467 FILLER_0_0_61
*468 FILLER_0_0_65
*469 FILLER_0_0_77
*470 FILLER_0_0_81
*471 FILLER_0_0_85
*472 FILLER_0_0_93
*473 FILLER_0_0_97
*474 FILLER_0_10_111
*475 FILLER_0_10_12
*476 FILLER_0_10_166
*477 FILLER_0_10_20
*478 FILLER_0_10_29
*479 FILLER_0_10_68
*480 FILLER_0_10_83
*481 FILLER_0_11_111
*482 FILLER_0_11_119
*483 FILLER_0_11_21
*484 FILLER_0_11_25
*485 FILLER_0_11_3
*486 FILLER_0_11_48
*487 FILLER_0_11_87
*488 FILLER_0_11_9
*489 FILLER_0_12_109
*490 FILLER_0_12_149
*491 FILLER_0_12_21
*492 FILLER_0_12_27
*493 FILLER_0_12_29
*494 FILLER_0_12_36
*495 FILLER_0_12_50
*496 FILLER_0_12_65
*497 FILLER_0_12_82
*498 FILLER_0_12_88
*499 FILLER_0_12_9
*500 FILLER_0_13_11
*501 FILLER_0_13_113
*502 FILLER_0_13_117
*503 FILLER_0_13_143
*504 FILLER_0_13_163
*505 FILLER_0_13_3
*506 FILLER_0_13_55
*507 FILLER_0_13_84
*508 FILLER_0_14_15
*509 FILLER_0_14_157
*510 FILLER_0_14_167
*511 FILLER_0_14_27
*512 FILLER_0_14_3
*513 FILLER_0_14_37
*514 FILLER_0_14_55
*515 FILLER_0_14_99
*516 FILLER_0_15_108
*517 FILLER_0_15_113
*518 FILLER_0_15_117
*519 FILLER_0_15_121
*520 FILLER_0_15_131
*521 FILLER_0_15_140
*522 FILLER_0_15_157
*523 FILLER_0_15_167
*524 FILLER_0_15_21
*525 FILLER_0_15_33
*526 FILLER_0_15_51
*527 FILLER_0_15_68
*528 FILLER_0_15_85
*529 FILLER_0_15_9
*530 FILLER_0_16_104
*531 FILLER_0_16_108
*532 FILLER_0_16_112
*533 FILLER_0_16_116
*534 FILLER_0_16_126
*535 FILLER_0_16_15
*536 FILLER_0_16_166
*537 FILLER_0_16_19
*538 FILLER_0_16_23
*539 FILLER_0_16_27
*540 FILLER_0_16_29
*541 FILLER_0_16_41
*542 FILLER_0_16_50
*543 FILLER_0_16_78
*544 FILLER_0_16_83
*545 FILLER_0_16_88
*546 FILLER_0_16_9
*547 FILLER_0_17_121
*548 FILLER_0_17_127
*549 FILLER_0_17_135
*550 FILLER_0_17_15
*551 FILLER_0_17_156
*552 FILLER_0_17_166
*553 FILLER_0_17_27
*554 FILLER_0_17_3
*555 FILLER_0_17_39
*556 FILLER_0_17_47
*557 FILLER_0_17_51
*558 FILLER_0_17_55
*559 FILLER_0_17_57
*560 FILLER_0_17_83
*561 FILLER_0_18_104
*562 FILLER_0_18_108
*563 FILLER_0_18_112
*564 FILLER_0_18_12
*565 FILLER_0_18_24
*566 FILLER_0_18_29
*567 FILLER_0_18_41
*568 FILLER_0_18_53
*569 FILLER_0_18_65
*570 FILLER_0_18_79
*571 FILLER_0_18_83
*572 FILLER_0_19_111
*573 FILLER_0_19_12
*574 FILLER_0_19_153
*575 FILLER_0_19_166
*576 FILLER_0_19_24
*577 FILLER_0_19_36
*578 FILLER_0_19_40
*579 FILLER_0_19_44
*580 FILLER_0_19_48
*581 FILLER_0_19_57
*582 FILLER_0_19_69
*583 FILLER_0_19_81
*584 FILLER_0_1_104
*585 FILLER_0_1_113
*586 FILLER_0_1_12
*587 FILLER_0_1_136
*588 FILLER_0_1_150
*589 FILLER_0_1_159
*590 FILLER_0_1_163
*591 FILLER_0_1_18
*592 FILLER_0_1_22
*593 FILLER_0_1_34
*594 FILLER_0_1_46
*595 FILLER_0_1_54
*596 FILLER_0_1_57
*597 FILLER_0_1_61
*598 FILLER_0_1_65
*599 FILLER_0_1_73
*600 FILLER_0_1_80
*601 FILLER_0_1_92
*602 FILLER_0_20_124
*603 FILLER_0_20_141
*604 FILLER_0_20_15
*605 FILLER_0_20_167
*606 FILLER_0_20_27
*607 FILLER_0_20_29
*608 FILLER_0_20_3
*609 FILLER_0_20_41
*610 FILLER_0_20_53
*611 FILLER_0_20_65
*612 FILLER_0_20_77
*613 FILLER_0_20_85
*614 FILLER_0_21_111
*615 FILLER_0_21_139
*616 FILLER_0_21_160
*617 FILLER_0_21_21
*618 FILLER_0_21_33
*619 FILLER_0_21_45
*620 FILLER_0_21_53
*621 FILLER_0_21_57
*622 FILLER_0_21_69
*623 FILLER_0_21_81
*624 FILLER_0_21_9
*625 FILLER_0_22_106
*626 FILLER_0_22_121
*627 FILLER_0_22_129
*628 FILLER_0_22_134
*629 FILLER_0_22_141
*630 FILLER_0_22_150
*631 FILLER_0_22_161
*632 FILLER_0_22_21
*633 FILLER_0_22_27
*634 FILLER_0_22_29
*635 FILLER_0_22_41
*636 FILLER_0_22_53
*637 FILLER_0_22_65
*638 FILLER_0_22_77
*639 FILLER_0_22_85
*640 FILLER_0_22_9
*641 FILLER_0_22_92
*642 FILLER_0_23_111
*643 FILLER_0_23_113
*644 FILLER_0_23_117
*645 FILLER_0_23_129
*646 FILLER_0_23_141
*647 FILLER_0_23_147
*648 FILLER_0_23_161
*649 FILLER_0_23_17
*650 FILLER_0_23_29
*651 FILLER_0_23_41
*652 FILLER_0_23_45
*653 FILLER_0_23_53
*654 FILLER_0_23_57
*655 FILLER_0_23_72
*656 FILLER_0_23_84
*657 FILLER_0_23_9
*658 FILLER_0_23_99
*659 FILLER_0_24_101
*660 FILLER_0_24_106
*661 FILLER_0_24_113
*662 FILLER_0_24_119
*663 FILLER_0_24_123
*664 FILLER_0_24_135
*665 FILLER_0_24_141
*666 FILLER_0_24_147
*667 FILLER_0_24_166
*668 FILLER_0_24_17
*669 FILLER_0_24_24
*670 FILLER_0_24_29
*671 FILLER_0_24_3
*672 FILLER_0_24_38
*673 FILLER_0_24_50
*674 FILLER_0_24_55
*675 FILLER_0_24_57
*676 FILLER_0_24_72
*677 FILLER_0_24_85
*678 FILLER_0_24_89
*679 FILLER_0_2_107
*680 FILLER_0_2_124
*681 FILLER_0_2_136
*682 FILLER_0_2_15
*683 FILLER_0_2_150
*684 FILLER_0_2_160
*685 FILLER_0_2_27
*686 FILLER_0_2_3
*687 FILLER_0_2_32
*688 FILLER_0_2_44
*689 FILLER_0_2_56
*690 FILLER_0_2_93
*691 FILLER_0_3_110
*692 FILLER_0_3_113
*693 FILLER_0_3_154
*694 FILLER_0_3_167
*695 FILLER_0_3_21
*696 FILLER_0_3_33
*697 FILLER_0_3_41
*698 FILLER_0_3_48
*699 FILLER_0_3_52
*700 FILLER_0_3_73
*701 FILLER_0_3_9
*702 FILLER_0_3_98
*703 FILLER_0_4_141
*704 FILLER_0_4_167
*705 FILLER_0_4_21
*706 FILLER_0_4_27
*707 FILLER_0_4_55
*708 FILLER_0_4_80
*709 FILLER_0_4_9
*710 FILLER_0_5_103
*711 FILLER_0_5_119
*712 FILLER_0_5_146
*713 FILLER_0_5_15
*714 FILLER_0_5_3
*715 FILLER_0_5_54
*716 FILLER_0_5_93
*717 FILLER_0_6_12
*718 FILLER_0_6_127
*719 FILLER_0_6_135
*720 FILLER_0_6_24
*721 FILLER_0_6_68
*722 FILLER_0_6_83
*723 FILLER_0_6_99
*724 FILLER_0_7_111
*725 FILLER_0_7_121
*726 FILLER_0_7_143
*727 FILLER_0_7_162
*728 FILLER_0_7_166
*729 FILLER_0_7_21
*730 FILLER_0_7_25
*731 FILLER_0_7_31
*732 FILLER_0_7_65
*733 FILLER_0_7_9
*734 FILLER_0_8_120
*735 FILLER_0_8_135
*736 FILLER_0_8_147
*737 FILLER_0_8_15
*738 FILLER_0_8_158
*739 FILLER_0_8_167
*740 FILLER_0_8_29
*741 FILLER_0_8_3
*742 FILLER_0_8_66
*743 FILLER_0_8_83
*744 FILLER_0_8_85
*745 FILLER_0_8_89
*746 FILLER_0_8_93
*747 FILLER_0_8_99
*748 FILLER_0_9_111
*749 FILLER_0_9_146
*750 FILLER_0_9_166
*751 FILLER_0_9_17
*752 FILLER_0_9_41
*753 FILLER_0_9_84
*754 FILLER_0_9_9
*755 PHY_0
*756 PHY_1
*757 PHY_10
*758 PHY_11
*759 PHY_12
*760 PHY_13
*761 PHY_14
*762 PHY_15
*763 PHY_16
*764 PHY_17
*765 PHY_18
*766 PHY_19
*767 PHY_2
*768 PHY_20
*769 PHY_21
*770 PHY_22
*771 PHY_23
*772 PHY_24
*773 PHY_25
*774 PHY_26
*775 PHY_27
*776 PHY_28
*777 PHY_29
*778 PHY_3
*779 PHY_30
*780 PHY_31
*781 PHY_32
*782 PHY_33
*783 PHY_34
*784 PHY_35
*785 PHY_36
*786 PHY_37
*787 PHY_38
*788 PHY_39
*789 PHY_4
*790 PHY_40
*791 PHY_41
*792 PHY_42
*793 PHY_43
*794 PHY_44
*795 PHY_45
*796 PHY_46
*797 PHY_47
*798 PHY_48
*799 PHY_49
*800 PHY_5
*801 PHY_6
*802 PHY_7
*803 PHY_8
*804 PHY_9
*805 TAP_100
*806 TAP_101
*807 TAP_102
*808 TAP_103
*809 TAP_104
*810 TAP_105
*811 TAP_106
*812 TAP_107
*813 TAP_108
*814 TAP_109
*815 TAP_110
*816 TAP_111
*817 TAP_112
*818 TAP_113
*819 TAP_114
*820 TAP_115
*821 TAP_116
*822 TAP_50
*823 TAP_51
*824 TAP_52
*825 TAP_53
*826 TAP_54
*827 TAP_55
*828 TAP_56
*829 TAP_57
*830 TAP_58
*831 TAP_59
*832 TAP_60
*833 TAP_61
*834 TAP_62
*835 TAP_63
*836 TAP_64
*837 TAP_65
*838 TAP_66
*839 TAP_67
*840 TAP_68
*841 TAP_69
*842 TAP_70
*843 TAP_71
*844 TAP_72
*845 TAP_73
*846 TAP_74
*847 TAP_75
*848 TAP_76
*849 TAP_77
*850 TAP_78
*851 TAP_79
*852 TAP_80
*853 TAP_81
*854 TAP_82
*855 TAP_83
*856 TAP_84
*857 TAP_85
*858 TAP_86
*859 TAP_87
*860 TAP_88
*861 TAP_89
*862 TAP_90
*863 TAP_91
*864 TAP_92
*865 TAP_93
*866 TAP_94
*867 TAP_95
*868 TAP_96
*869 TAP_97
*870 TAP_98
*871 TAP_99
*872 _172_
*873 _173_
*874 _174_
*875 _175_
*876 _176_
*877 _177_
*878 _178_
*879 _179_
*880 _180_
*881 _181_
*882 _182_
*883 _183_
*884 _184_
*885 _185_
*886 _186_
*887 _187_
*888 _188_
*889 _189_
*890 _190_
*891 _191_
*892 _192_
*893 _193_
*894 _194_
*895 _195_
*896 _196_
*897 _197_
*898 _198_
*899 _199_
*900 _200_
*901 _201_
*902 _202_
*903 _203_
*904 _204_
*905 _205_
*906 _206_
*907 _207_
*908 _208_
*909 _209_
*910 _210_
*911 _211_
*912 _212_
*913 _213_
*914 _214_
*915 _215_
*916 _216_
*917 _217_
*918 _218_
*919 _219_
*920 _220_
*921 _221_
*922 _222_
*923 _223_
*924 _224_
*925 _225_
*926 _226_
*927 _227_
*928 _228_
*929 _229_
*930 _230_
*931 _231_
*932 _232_
*933 _233_
*934 _234_
*935 _235_
*936 _236_
*937 _237_
*938 _238_
*939 _239_
*940 _240_
*941 _241_
*942 _242_
*943 _243_
*944 _244_
*945 _245_
*946 _246_
*947 _247_
*948 _248_
*949 _249_
*950 _250_
*951 _251_
*952 _252_
*953 _253_
*954 _254_
*955 _255_
*956 _256_
*957 _257_
*958 _258_
*959 _259_
*960 _260_
*961 _261_
*962 _262_
*963 _263_
*964 _264_
*965 _265_
*966 _266_
*967 _267_
*968 _268_
*969 _269_
*970 _270_
*971 _271_
*972 _272_
*973 _273_
*974 _274_
*975 _275_
*976 _276_
*977 _277_
*978 _278_
*979 _279_
*980 _280_
*981 _281_
*982 _282_
*983 _283_
*984 _284_
*985 _285_
*986 _286_
*987 _287_
*988 _288_
*989 _289_
*990 _290_
*991 _291_
*992 _292_
*993 _293_
*994 _294_
*995 _295_
*996 _296_
*997 _297_
*998 _298_
*999 _299_
*1000 _300_
*1001 _301_
*1002 _302_
*1003 _303_
*1004 _304_
*1005 _305_
*1006 _306_
*1007 _307_
*1008 _308_
*1009 _309_
*1010 _310_
*1011 _311_
*1012 _312_
*1013 _313_
*1014 _314_
*1015 _315_
*1016 _316_
*1017 _317_
*1018 _318_
*1019 _319_
*1020 _320_
*1021 _321_
*1022 _322_
*1023 _323_
*1024 _324_
*1025 _325_
*1026 _326_
*1027 _327_
*1028 _328_
*1029 _329_
*1030 _330_
*1031 _331_
*1032 _332_
*1033 _333_
*1034 _334_
*1035 _335_
*1036 _336_
*1037 _337_
*1038 _338_
*1039 _339_
*1040 _340_
*1041 _341_
*1042 _342_
*1043 _343_
*1044 _344_
*1045 _345_
*1046 _346_
*1047 _347_
*1048 _348_
*1049 _349_
*1050 _350_
*1051 _351_
*1052 _352_
*1053 _353_
*1054 _354_
*1055 _355_
*1056 _356_
*1057 _357_
*1058 _358_
*1059 _359_
*1060 _360_
*1061 _361_
*1062 _362_
*1063 _363_
*1064 _364_
*1065 _365_
*1066 _366_
*1067 _367_
*1068 _368_
*1069 _369_
*1070 _370_
*1071 _371_
*1072 _372_
*1073 _373_
*1074 _374_
*1075 _375_
*1076 _376_
*1077 _377_
*1078 _378_
*1079 _379_
*1080 _380_
*1081 _381_
*1082 _382_
*1083 _383_
*1084 _384_
*1085 _385_
*1086 _386_
*1087 _387_
*1088 _388_
*1089 _389_
*1090 _390_
*1091 _391_
*1092 _392_
*1093 _393_
*1094 _394_
*1095 _395_
*1096 _396_
*1097 _397_
*1098 _398_
*1099 _399_
*1100 _400_
*1101 _401_
*1102 _402_
*1103 _403_
*1104 _404_
*1105 _405_
*1106 _406_
*1107 _407_
*1108 _422_
*1109 _423_
*1110 _424_
*1111 _425_
*1112 _426_
*1113 _427_
*1114 _428_
*1115 _429_
*1116 _430_
*1117 _431_
*1118 _432_
*1119 _433_
*1120 _434_
*1121 _435_
*1122 _436_
*1123 _437_
*1124 _438_
*1125 _439_
*1126 _440_
*1127 _440__63
*1128 _441_
*1129 _442_
*1130 _443_
*1131 _444_
*1132 _445_
*1133 _446_
*1134 _447_
*1135 _448_
*1136 _448__64
*1137 _449_
*1138 _450_
*1139 _451_
*1140 _452_
*1141 _453_
*1142 _454_
*1143 _455_
*1144 _456_
*1145 _457_
*1146 _458_
*1147 _459_
*1148 _460_
*1149 _460__65
*1150 _461_
*1151 _462_
*1152 _463_
*1153 _464_
*1154 _465_
*1155 _466_
*1156 _467_
*1157 _468_
*1158 _469_
*1159 _470_
*1160 _471_
*1161 _472_
*1162 _472__66
*1163 _473_
*1164 _474_
*1165 _475_
*1166 _476_
*1167 _477_
*1168 _478_
*1169 _479_
*1170 _480_
*1171 _481_
*1172 _482_
*1173 _483_
*1174 _484_
*1175 _484__67
*1176 _485_
*1177 _486_
*1178 _487_
*1179 _488_
*1180 _489_
*1181 _490_
*1182 _491_
*1183 _492_
*1184 _493_
*1185 _494_
*1186 _494__68
*1187 _495_
*1188 _496_
*1189 _497_
*1190 _498_
*1191 _499_
*1192 _500_
*1193 _501_
*1194 _502_
*1195 _503_
*1196 _504_
*1197 _504__69
*1198 _505_
*1199 _506_
*1200 _507_
*1201 _508_
*1202 _509_
*1203 _510_
*1204 _510__70
*1205 _511_
*1206 _512_
*1207 _513_
*1208 _514_
*1209 _515_
*1210 _516_
*1211 _516__71
*1212 _517_
*1213 _518_
*1214 _519_
*1215 _520_
*1216 _521_
*1217 _522_
*1218 _522__72
*1219 _523_
*1220 _524_
*1221 _525_
*1222 _526_
*1223 _527_
*1224 _528_
*1225 _528__73
*1226 _529_
*1227 _530_
*1228 _531_
*1229 _532_
*1230 _533_
*1231 _533__74
*1232 _534_
*1233 _535_
*1234 _536_
*1235 _537_
*1236 _537__75
*1237 _538_
*1238 _539_
*1239 _540_
*1240 clkbuf_0_prog_clk
*1241 clkbuf_2_0__f_prog_clk
*1242 clkbuf_2_1__f_prog_clk
*1243 clkbuf_2_2__f_prog_clk
*1244 clkbuf_2_3__f_prog_clk
*1245 hold1
*1246 hold10
*1247 hold11
*1248 hold12
*1249 hold13
*1250 hold14
*1251 hold15
*1252 hold16
*1253 hold17
*1254 hold18
*1255 hold19
*1256 hold2
*1257 hold20
*1258 hold21
*1259 hold22
*1260 hold23
*1261 hold24
*1262 hold25
*1263 hold26
*1264 hold27
*1265 hold28
*1266 hold29
*1267 hold3
*1268 hold30
*1269 hold31
*1270 hold4
*1271 hold5
*1272 hold6
*1273 hold7
*1274 hold8
*1275 hold9
*1276 input1
*1277 input10
*1278 input11
*1279 input12
*1280 input13
*1281 input14
*1282 input15
*1283 input16
*1284 input17
*1285 input18
*1286 input19
*1287 input2
*1288 input20
*1289 input21
*1290 input22
*1291 input23
*1292 input24
*1293 input25
*1294 input26
*1295 input27
*1296 input28
*1297 input29
*1298 input3
*1299 input30
*1300 input31
*1301 input32
*1302 input33
*1303 input34
*1304 input4
*1305 input5
*1306 input6
*1307 input7
*1308 input8
*1309 input9
*1310 output35
*1311 output36
*1312 output37
*1313 output38
*1314 output39
*1315 output40
*1316 output41
*1317 output42
*1318 output43
*1319 output44
*1320 output45
*1321 output46
*1322 output47
*1323 output48
*1324 output49
*1325 output50
*1326 output51
*1327 output52
*1328 output53
*1329 output54
*1330 output55
*1331 output56
*1332 output57
*1333 output58
*1334 output59
*1335 output60
*1336 output61
*1337 sb_0__1__62

*PORTS
bottom_left_grid_right_width_0_height_0_subtile_0__pin_inpad_0_ I
bottom_right_grid_left_width_0_height_0_subtile_0__pin_O_1_ I
ccff_head I
ccff_tail O
chanx_right_in[0] I
chanx_right_in[1] I
chanx_right_in[2] I
chanx_right_in[3] I
chanx_right_in[4] I
chanx_right_in[5] I
chanx_right_in[6] I
chanx_right_in[7] I
chanx_right_in[8] I
chanx_right_out[0] O
chanx_right_out[1] O
chanx_right_out[2] O
chanx_right_out[3] O
chanx_right_out[4] O
chanx_right_out[5] O
chanx_right_out[6] O
chanx_right_out[7] O
chanx_right_out[8] O
chany_bottom_in[0] I
chany_bottom_in[1] I
chany_bottom_in[2] I
chany_bottom_in[3] I
chany_bottom_in[4] I
chany_bottom_in[5] I
chany_bottom_in[6] I
chany_bottom_in[7] I
chany_bottom_in[8] I
chany_bottom_out[0] O
chany_bottom_out[1] O
chany_bottom_out[2] O
chany_bottom_out[3] O
chany_bottom_out[4] O
chany_bottom_out[5] O
chany_bottom_out[6] O
chany_bottom_out[7] O
chany_bottom_out[8] O
chany_top_in[0] I
chany_top_in[1] I
chany_top_in[2] I
chany_top_in[3] I
chany_top_in[4] I
chany_top_in[5] I
chany_top_in[6] I
chany_top_in[7] I
chany_top_in[8] I
chany_top_out[0] O
chany_top_out[1] O
chany_top_out[2] O
chany_top_out[3] O
chany_top_out[4] O
chany_top_out[5] O
chany_top_out[6] O
chany_top_out[7] O
chany_top_out[8] O
prog_clk I
right_bottom_grid_top_width_0_height_0_subtile_0__pin_O_2_ I
right_top_grid_bottom_width_0_height_0_subtile_0__pin_O_0_ I
top_left_grid_right_width_0_height_0_subtile_0__pin_inpad_0_ I
top_right_grid_left_width_0_height_0_subtile_0__pin_O_1_ I

*D_NET *1 0.00170399
*CONN
*P bottom_left_grid_right_width_0_height_0_subtile_0__pin_inpad_0_ I
*I *1276:A I *D sky130_fd_sc_hd__clkbuf_1
*CAP
1 bottom_left_grid_right_width_0_height_0_subtile_0__pin_inpad_0_ 0.000606607
2 *1276:A 0
3 *1:9 0.000606607
4 *1:9 chany_top_out[1] 0
5 *1:9 *50:10 0.000390597
6 *1:9 *401:20 0.00010018
*RES
1 bottom_left_grid_right_width_0_height_0_subtile_0__pin_inpad_0_ *1:9 29.5621 
2 *1:9 *1276:A 23 
*END

*D_NET *2 0.00247017
*CONN
*P bottom_right_grid_left_width_0_height_0_subtile_0__pin_O_1_ I
*I *1287:A I *D sky130_fd_sc_hd__clkbuf_1
*CAP
1 bottom_right_grid_left_width_0_height_0_subtile_0__pin_O_1_ 0.00103907
2 *1287:A 0
3 *2:19 0.00103907
4 *2:19 *1037:A 5.79559e-05
5 *2:19 *1289:A 0.00014196
6 *2:19 *6:15 5.40876e-05
7 *2:19 *113:22 0
8 *2:19 *263:8 2.91905e-05
9 *2:19 *364:12 8.09334e-05
10 *2:19 *408:8 2.79004e-05
*RES
1 bottom_right_grid_left_width_0_height_0_subtile_0__pin_O_1_ *2:19 36.9364 
2 *2:19 *1287:A 23 
*END

*D_NET *3 0.00762344
*CONN
*P ccff_head I
*I *1298:A I *D sky130_fd_sc_hd__clkbuf_1
*CAP
1 ccff_head 0.00234984
2 *1298:A 0.000381247
3 *3:11 0.00273109
4 *1298:A *1016:A 9.67842e-05
5 *1298:A *1151:TE_B 5.37348e-06
6 *1298:A *269:24 0.000187129
7 *1298:A *375:8 0.00010018
8 *3:11 ccff_tail 0
9 *3:11 *1152:Z 0
10 *3:11 *1191:TE_B 0.000787077
11 *3:11 *8:13 0
12 *3:11 *13:27 6.98794e-05
13 *3:11 *88:10 0
14 *3:11 *105:8 2.23884e-05
15 *3:11 *121:10 0.000139647
16 *3:11 *129:10 6.14498e-05
17 *3:11 *183:16 9.91442e-06
18 *3:11 *211:10 0.000101583
19 *3:11 *253:20 8.58779e-05
20 *3:11 *268:32 0
21 *3:11 *269:24 0.000283432
22 *3:11 *276:12 0
23 *3:11 *278:8 0
24 *3:11 *279:12 0.000210557
25 *3:11 *327:26 0
*RES
1 ccff_head *3:11 38.5414 
2 *3:11 *1298:A 45.8093 
*END

*D_NET *4 0.0010306
*CONN
*P ccff_tail O
*I *1310:X O *D sky130_fd_sc_hd__clkbuf_4
*CAP
1 ccff_tail 0.000505151
2 *1310:X 0.000505151
3 ccff_tail *60:15 2.02956e-05
4 *3:11 ccff_tail 0
*RES
1 *1310:X ccff_tail 49.6622 
*END

*D_NET *5 0.00218783
*CONN
*P chanx_right_in[0] I
*I *1304:A I *D sky130_fd_sc_hd__buf_1
*CAP
1 chanx_right_in[0] 0.000890951
2 *1304:A 0
3 *5:17 0.000890951
4 *5:17 *6:15 0.000317411
5 *5:17 *61:13 0
6 *5:17 *287:8 8.85189e-05
*RES
1 chanx_right_in[0] *5:17 36.3508 
2 *5:17 *1304:A 23 
*END

*D_NET *6 0.00196616
*CONN
*P chanx_right_in[1] I
*I *1305:A I *D sky130_fd_sc_hd__clkbuf_1
*CAP
1 chanx_right_in[1] 0.000687405
2 *1305:A 0
3 *6:15 0.000687405
4 *6:15 *1037:A 1.8788e-05
5 *6:15 *1306:A 0
6 *6:15 *263:8 0.000201068
7 *6:15 *347:24 0
8 *2:19 *6:15 5.40876e-05
9 *5:17 *6:15 0.000317411
*RES
1 chanx_right_in[1] *6:15 35.2854 
2 *6:15 *1305:A 23 
*END

*D_NET *7 0.0017669
*CONN
*P chanx_right_in[2] I
*I *1306:A I *D sky130_fd_sc_hd__buf_1
*CAP
1 chanx_right_in[2] 0.000845524
2 *1306:A 0.000845524
3 *1306:A *8:13 0
4 *1306:A *113:22 6.07611e-06
5 *1306:A *263:10 6.97776e-05
6 *1306:A *386:8 0
7 *6:15 *1306:A 0
*RES
1 chanx_right_in[2] *1306:A 49.6983 
*END

*D_NET *8 0.00333074
*CONN
*P chanx_right_in[3] I
*I *1307:A I *D sky130_fd_sc_hd__buf_1
*CAP
1 chanx_right_in[3] 0.00162928
2 *1307:A 0
3 *8:13 0.00162928
4 *8:13 *9:23 0
5 *8:13 *105:8 0
6 *8:13 *177:12 1.90292e-05
7 *8:13 *296:8 0
8 *8:13 *296:24 1.88016e-05
9 *8:13 *364:12 1.14452e-05
10 *8:13 *366:10 4.21594e-06
11 *8:13 *440:10 1.86973e-05
12 *1306:A *8:13 0
13 *3:11 *8:13 0
*RES
1 chanx_right_in[3] *8:13 29.5783 
2 *8:13 *1307:A 23 
*END

*D_NET *9 0.00681593
*CONN
*P chanx_right_in[4] I
*I *1308:A I *D sky130_fd_sc_hd__buf_1
*CAP
1 chanx_right_in[4] 0.00294667
2 *1308:A 0
3 *9:23 0.00294667
4 *9:23 *1023:A 1.11421e-05
5 *9:23 *10:15 0.000205316
6 *9:23 *30:17 6.07611e-06
7 *9:23 *116:16 0.000358001
8 *9:23 *124:10 3.46532e-05
9 *9:23 *177:12 7.5095e-06
10 *9:23 *254:40 0.000118889
11 *9:23 *254:66 0
12 *9:23 *264:18 0
13 *9:23 *275:20 0
14 *9:23 *296:24 6.03488e-05
15 *9:23 *363:12 0
16 *9:23 *411:8 8.85189e-05
17 *9:23 *449:8 3.21223e-05
18 *8:13 *9:23 0
*RES
1 chanx_right_in[4] *9:23 39.9512 
2 *9:23 *1308:A 23 
*END

*D_NET *10 0.0053822
*CONN
*P chanx_right_in[5] I
*I *1309:A I *D sky130_fd_sc_hd__clkbuf_1
*CAP
1 chanx_right_in[5] 0.0021408
2 *1309:A 0
3 *10:15 0.0021408
4 *10:15 *1012:A 1.01436e-05
5 *10:15 *1018:A 0.000239854
6 *10:15 *1123:Z 0
7 *10:15 *1125:A 0
8 *10:15 *1246:A 0.000108681
9 *10:15 *11:17 0
10 *10:15 *123:8 0.000137788
11 *10:15 *253:32 0
12 *10:15 *253:48 0
13 *10:15 *255:14 0.000236855
14 *10:15 *259:95 0
15 *10:15 *296:8 0.00014061
16 *10:15 *352:8 2.13508e-05
17 *9:23 *10:15 0.000205316
*RES
1 chanx_right_in[5] *10:15 36.2249 
2 *10:15 *1309:A 23 
*END

*D_NET *11 0.0106681
*CONN
*P chanx_right_in[6] I
*I *1277:A I *D sky130_fd_sc_hd__clkbuf_1
*CAP
1 chanx_right_in[6] 0.0024605
2 *1277:A 0
3 *11:39 0.000848707
4 *11:25 0.00133212
5 *11:17 0.00294392
6 *11:17 *1145:A 1.46205e-05
7 *11:17 *1145:TE_B 0.000131122
8 *11:17 *1150:A 5.29219e-05
9 *11:17 *12:19 0
10 *11:17 *89:20 1.59094e-05
11 *11:17 *109:12 2.57616e-05
12 *11:17 *211:10 9.47501e-05
13 *11:17 *259:95 0.000173149
14 *11:17 *275:20 4.96675e-06
15 *11:17 *275:39 0.00016393
16 *11:17 *340:42 0.000392386
17 *11:17 *341:8 0
18 *11:17 *355:18 5.20019e-05
19 *11:25 *150:10 0.000218962
20 *11:25 *228:12 0.000108662
21 *11:25 *259:26 0.000258687
22 *11:39 *1014:A 0.000564294
23 *11:39 *1124:A 0