*SPEF "ieee 1481-1999"
*DESIGN "sb_0__10_"
*DATE "11:11:11 Fri 11 11, 1111"
*VENDOR "OpenRCX"
*PROGRAM "Parallel Extraction"
*VERSION "1.0"
*DESIGN_FLOW "NAME_SCOPE LOCAL" "PIN_CAP NONE"
*DIVIDER /
*DELIMITER :
*BUS_DELIMITER []
*T_UNIT 1 NS
*C_UNIT 1 PF
*R_UNIT 1 OHM
*L_UNIT 1 HENRY

*NAME_MAP
*1 bottom_left_grid_right_width_0_height_0_subtile_0__pin_inpad_0_
*2 bottom_right_grid_left_width_0_height_0_subtile_0__pin_O_1_
*3 ccff_head
*4 ccff_tail
*5 chanx_right_in[0]
*6 chanx_right_in[1]
*7 chanx_right_in[2]
*8 chanx_right_in[3]
*9 chanx_right_in[4]
*10 chanx_right_in[5]
*11 chanx_right_in[6]
*12 chanx_right_in[7]
*13 chanx_right_in[8]
*14 chanx_right_out[0]
*15 chanx_right_out[1]
*16 chanx_right_out[2]
*17 chanx_right_out[3]
*18 chanx_right_out[4]
*19 chanx_right_out[5]
*20 chanx_right_out[6]
*21 chanx_right_out[7]
*22 chanx_right_out[8]
*23 chany_bottom_in[0]
*24 chany_bottom_in[1]
*25 chany_bottom_in[2]
*26 chany_bottom_in[3]
*27 chany_bottom_in[4]
*28 chany_bottom_in[5]
*29 chany_bottom_in[6]
*30 chany_bottom_in[7]
*31 chany_bottom_in[8]
*32 chany_bottom_out[0]
*33 chany_bottom_out[1]
*34 chany_bottom_out[2]
*35 chany_bottom_out[3]
*36 chany_bottom_out[4]
*37 chany_bottom_out[5]
*38 chany_bottom_out[6]
*39 chany_bottom_out[7]
*40 chany_bottom_out[8]
*41 prog_clk
*42 right_bottom_grid_top_width_0_height_0_subtile_0__pin_O_2_
*43 right_top_grid_bottom_width_0_height_0_subtile_0__pin_inpad_0_
*46 _000_
*47 _001_
*48 _002_
*49 _003_
*50 _004_
*51 _005_
*52 _006_
*53 _007_
*54 _008_
*55 _009_
*56 _010_
*57 _011_
*58 _012_
*59 _013_
*60 _014_
*61 _015_
*62 _016_
*63 _017_
*64 _018_
*65 _019_
*66 _020_
*67 _021_
*68 _022_
*69 _023_
*70 clknet_0_prog_clk
*71 clknet_1_0__leaf_prog_clk
*72 clknet_1_1__leaf_prog_clk
*73 mem_bottom_track_1\.DFF_0_\.D
*74 mem_bottom_track_1\.DFF_0_\.Q
*75 mem_bottom_track_1\.DFF_1_\.Q
*76 mem_bottom_track_3\.DFF_0_\.Q
*77 mem_right_track_0\.DFF_0_\.Q
*78 mem_right_track_0\.DFF_1_\.Q
*79 mem_right_track_2\.DFF_0_\.Q
*80 mux_bottom_track_1\.INVTX1_0_\.out
*81 mux_bottom_track_1\.INVTX1_1_\.out
*82 mux_bottom_track_1\.mux_l1_in_0_\.TGATE_0_\.out
*83 mux_bottom_track_1\.mux_l2_in_0_\.TGATE_0_\.out
*84 mux_bottom_track_3\.INVTX1_0_\.out
*85 mux_bottom_track_3\.INVTX1_1_\.out
*86 mux_bottom_track_3\.mux_l1_in_0_\.TGATE_0_\.out
*87 mux_bottom_track_3\.mux_l2_in_0_\.TGATE_0_\.out
*88 mux_right_track_0\.INVTX1_0_\.out
*89 mux_right_track_0\.INVTX1_1_\.out
*90 mux_right_track_0\.mux_l1_in_0_\.TGATE_0_\.out
*91 mux_right_track_0\.mux_l2_in_0_\.TGATE_0_\.out
*92 mux_right_track_2\.INVTX1_0_\.out
*93 mux_right_track_2\.INVTX1_1_\.out
*94 mux_right_track_2\.mux_l1_in_0_\.TGATE_0_\.out
*95 mux_right_track_2\.mux_l2_in_0_\.TGATE_0_\.out
*96 net1
*97 net10
*98 net11
*99 net12
*100 net13
*101 net14
*102 net15
*103 net16
*104 net17
*105 net18
*106 net19
*107 net2
*108 net20
*109 net21
*110 net22
*111 net23
*112 net24
*113 net25
*114 net26
*115 net27
*116 net28
*117 net29
*118 net3
*119 net30
*120 net31
*121 net32
*122 net33
*123 net34
*124 net35
*125 net36
*126 net37
*127 net38
*128 net39
*129 net4
*130 net40
*131 net41
*132 net42
*133 net43
*134 net44
*135 net45
*136 net46
*137 net47
*138 net48
*139 net49
*140 net5
*141 net50
*142 net51
*143 net52
*144 net53
*145 net6
*146 net7
*147 net8
*148 net9
*149 FILLER_0_0_101
*150 FILLER_0_0_12
*151 FILLER_0_0_29
*152 FILLER_0_0_57
*153 FILLER_0_0_61
*154 FILLER_0_0_71
*155 FILLER_0_10_15
*156 FILLER_0_10_27
*157 FILLER_0_10_29
*158 FILLER_0_10_3
*159 FILLER_0_10_41
*160 FILLER_0_10_53
*161 FILLER_0_10_61
*162 FILLER_0_10_66
*163 FILLER_0_10_78
*164 FILLER_0_10_85
*165 FILLER_0_10_93
*166 FILLER_0_10_98
*167 FILLER_0_11_21
*168 FILLER_0_11_33
*169 FILLER_0_11_45
*170 FILLER_0_11_57
*171 FILLER_0_11_69
*172 FILLER_0_11_81
*173 FILLER_0_11_89
*174 FILLER_0_11_9
*175 FILLER_0_12_101
*176 FILLER_0_12_12
*177 FILLER_0_12_16
*178 FILLER_0_12_29
*179 FILLER_0_12_41
*180 FILLER_0_12_53
*181 FILLER_0_12_65
*182 FILLER_0_12_77
*183 FILLER_0_12_83
*184 FILLER_0_13_19
*185 FILLER_0_13_27
*186 FILLER_0_13_29
*187 FILLER_0_13_3
*188 FILLER_0_13_41
*189 FILLER_0_13_53
*190 FILLER_0_13_57
*191 FILLER_0_13_69
*192 FILLER_0_13_81
*193 FILLER_0_1_51
*194 FILLER_0_2_101
*195 FILLER_0_2_20
*196 FILLER_0_2_24
*197 FILLER_0_2_6
*198 FILLER_0_2_79
*199 FILLER_0_3_101
*200 FILLER_0_3_19
*201 FILLER_0_3_27
*202 FILLER_0_3_39
*203 FILLER_0_3_55
*204 FILLER_0_3_57
*205 FILLER_0_3_83
*206 FILLER_0_3_9
*207 FILLER_0_4_101
*208 FILLER_0_4_20
*209 FILLER_0_4_29
*210 FILLER_0_4_3
*211 FILLER_0_4_8
*212 FILLER_0_4_82
*213 FILLER_0_4_85
*214 FILLER_0_5_12
*215 FILLER_0_5_24
*216 FILLER_0_5_36
*217 FILLER_0_5_47
*218 FILLER_0_5_57
*219 FILLER_0_5_87
*220 FILLER_0_6_10
*221 FILLER_0_6_22
*222 FILLER_0_6_29
*223 FILLER_0_6_3
*224 FILLER_0_6_41
*225 FILLER_0_7_21
*226 FILLER_0_7_33
*227 FILLER_0_7_45
*228 FILLER_0_7_53
*229 FILLER_0_7_57
*230 FILLER_0_7_64
*231 FILLER_0_7_68
*232 FILLER_0_7_9
*233 FILLER_0_7_90
*234 FILLER_0_7_98
*235 FILLER_0_8_15
*236 FILLER_0_8_27
*237 FILLER_0_8_29
*238 FILLER_0_8_3
*239 FILLER_0_8_41
*240 FILLER_0_8_53
*241 FILLER_0_8_65
*242 FILLER_0_8_73
*243 FILLER_0_8_82
*244 FILLER_0_8_96
*245 FILLER_0_9_21
*246 FILLER_0_9_33
*247 FILLER_0_9_45
*248 FILLER_0_9_53
*249 FILLER_0_9_57
*250 FILLER_0_9_69
*251 FILLER_0_9_81
*252 FILLER_0_9_89
*253 FILLER_0_9_9
*254 FILLER_0_9_98
*255 PHY_0
*256 PHY_1
*257 PHY_10
*258 PHY_11
*259 PHY_12
*260 PHY_13
*261 PHY_14
*262 PHY_15
*263 PHY_16
*264 PHY_17
*265 PHY_18
*266 PHY_19
*267 PHY_2
*268 PHY_20
*269 PHY_21
*270 PHY_22
*271 PHY_23
*272 PHY_24
*273 PHY_25
*274 PHY_26
*275 PHY_27
*276 PHY_3
*277 PHY_4
*278 PHY_5
*279 PHY_6
*280 PHY_7
*281 PHY_8
*282 PHY_9
*283 TAP_28
*284 TAP_29
*285 TAP_30
*286 TAP_31
*287 TAP_32
*288 TAP_33
*289 TAP_34
*290 TAP_35
*291 TAP_36
*292 TAP_37
*293 TAP_38
*294 TAP_39
*295 TAP_40
*296 TAP_41
*297 TAP_42
*298 TAP_43
*299 TAP_44
*300 TAP_45
*301 TAP_46
*302 TAP_47
*303 TAP_48
*304 TAP_49
*305 TAP_50
*306 TAP_51
*307 _028_
*308 _029_
*309 _030_
*310 _031_
*311 _032_
*312 _033_
*313 _034_
*314 _035_
*315 _036_
*316 _037_
*317 _038_
*318 _039_
*319 _040_
*320 _041_
*321 _042_
*322 _043_
*323 _044_
*324 _045_
*325 _046_
*326 _047_
*327 _048_
*328 _049_
*329 _050_
*330 _051_
*331 _052_
*332 _053_
*333 _054_
*334 _055_
*335 _056_
*336 _057_
*337 _058_
*338 _059_
*339 _060_
*340 _061_
*341 _062_
*342 _063_
*343 _064_
*344 _065_
*345 _066_
*346 _067_
*347 _068_
*348 _069_
*349 _070_
*350 _071_
*351 _076_
*352 _077_
*353 _078_
*354 _079_
*355 _080_
*356 _081_
*357 _082_
*358 _083_
*359 _084_
*360 _085_
*361 _086_
*362 _087_
*363 _088_
*364 _089_
*365 _090_
*366 _091_
*367 _092_
*368 _093_
*369 _093__43
*370 _094_
*371 _094__44
*372 _095_
*373 _096_
*374 _097_
*375 _098_
*376 _098__45
*377 _099_
*378 _100_
*379 _101_
*380 _102_
*381 _103_
*382 _103__46
*383 _104_
*384 _105_
*385 clkbuf_0_prog_clk
*386 clkbuf_1_0__f_prog_clk
*387 clkbuf_1_1__f_prog_clk
*388 hold1
*389 hold2
*390 hold3
*391 hold4
*392 hold5
*393 hold6
*394 hold7
*395 input1
*396 input10
*397 input11
*398 input12
*399 input13
*400 input14
*401 input15
*402 input16
*403 input17
*404 input18
*405 input19
*406 input2
*407 input20
*408 input21
*409 input22
*410 input23
*411 input3
*412 input4
*413 input5
*414 input6
*415 input7
*416 input8
*417 input9
*418 output24
*419 output25
*420 output26
*421 output27
*422 output28
*423 output29
*424 output30
*425 output31
*426 output32
*427 output33
*428 output34
*429 output35
*430 output36
*431 output37
*432 output38
*433 output39
*434 output40
*435 output41
*436 output42

*PORTS
bottom_left_grid_right_width_0_height_0_subtile_0__pin_inpad_0_ I
bottom_right_grid_left_width_0_height_0_subtile_0__pin_O_1_ I
ccff_head I
ccff_tail O
chanx_right_in[0] I
chanx_right_in[1] I
chanx_right_in[2] I
chanx_right_in[3] I
chanx_right_in[4] I
chanx_right_in[5] I
chanx_right_in[6] I
chanx_right_in[7] I
chanx_right_in[8] I
chanx_right_out[0] O
chanx_right_out[1] O
chanx_right_out[2] O
chanx_right_out[3] O
chanx_right_out[4] O
chanx_right_out[5] O
chanx_right_out[6] O
chanx_right_out[7] O
chanx_right_out[8] O
chany_bottom_in[0] I
chany_bottom_in[1] I
chany_bottom_in[2] I
chany_bottom_in[3] I
chany_bottom_in[4] I
chany_bottom_in[5] I
chany_bottom_in[6] I
chany_bottom_in[7] I
chany_bottom_in[8] I
chany_bottom_out[0] O
chany_bottom_out[1] O
chany_bottom_out[2] O
chany_bottom_out[3] O
chany_bottom_out[4] O
chany_bottom_out[5] O
chany_bottom_out[6] O
chany_bottom_out[7] O
chany_bottom_out[8] O
prog_clk I
right_bottom_grid_top_width_0_height_0_subtile_0__pin_O_2_ I
right_top_grid_bottom_width_0_height_0_subtile_0__pin_inpad_0_ I

*D_NET *1 0.00147103
*CONN
*P bottom_left_grid_right_width_0_height_0_subtile_0__pin_inpad_0_ I
*I *395:A I *D sky130_fd_sc_hd__clkbuf_1
*CAP
1 bottom_left_grid_right_width_0_height_0_subtile_0__pin_inpad_0_ 0.000735514
2 *395:A 0.000735514
3 *395:A chany_bottom_out[0] 0
4 *395:A chany_bottom_out[1] 0
5 *395:A *316:A 0
6 *395:A *341:A 0
7 *395:A *363:A 0
8 *395:A *377:A 0
9 *395:A *399:A 0
*RES
1 bottom_left_grid_right_width_0_height_0_subtile_0__pin_inpad_0_ *395:A 16.155 
*END

*D_NET *2 0.00217694
*CONN
*P bottom_right_grid_left_width_0_height_0_subtile_0__pin_O_1_ I
*I *406:A I *D sky130_fd_sc_hd__buf_1
*CAP
1 bottom_right_grid_left_width_0_height_0_subtile_0__pin_O_1_ 0.000852466
2 *406:A 0.000852466
3 *406:A *313:A 0.000126056
4 *406:A *338:A 5.4155e-06
5 *406:A *367:A 0.00023979
6 *406:A *377:TE_B 0
7 *406:A *377:Z 4.47928e-05
8 *406:A *408:A 0
9 *406:A *414:A 0
10 *406:A *415:A 5.59592e-05
*RES
1 bottom_right_grid_left_width_0_height_0_subtile_0__pin_O_1_ *406:A 18.045 
*END

*D_NET *3 0.00375655
*CONN
*P ccff_head I
*I *411:A I *D sky130_fd_sc_hd__clkbuf_1
*CAP
1 ccff_head 0.00137215
2 *411:A 0.00137215
3 *411:A ccff_tail 0.000142927
4 *411:A *344:D 0.000145337
5 *411:A *345:D 9.17016e-05
6 *411:A *348:D 7.08554e-05
7 *411:A *372:Z 8.41703e-06
8 *411:A *388:A 1.93834e-05
9 *411:A *396:A 0
10 *411:A *397:A 0
11 *411:A *398:A 5.22689e-05
12 *411:A *409:A 0
13 *411:A *418:A 0.000481371
14 *411:A *75:24 0
*RES
1 ccff_head *411:A 15.3886 
*END

*D_NET *4 0.000601797
*CONN
*P ccff_tail O
*I *418:X O *D sky130_fd_sc_hd__buf_2
*CAP
1 ccff_tail 0.000201077
2 *418:X 0.000201077
3 ccff_tail chanx_right_out[0] 0
4 ccff_tail *368:TE_B 0
5 ccff_tail *398:A 1.88656e-05
6 ccff_tail *409:A 3.78506e-05
7 *411:A ccff_tail 0.000142927
*RES
1 *418:X ccff_tail 4.90503 
*END

*D_NET *5 0.00563162
*CONN
*P chanx_right_in[0] I
*I *412:A I *D sky130_fd_sc_hd__buf_1
*CAP
1 chanx_right_in[0] 0.0012157
2 *412:A 0.0012157
3 *412:A *316:A 0
4 *412:A *317:A 0.000201654
5 *412:A *338:A 0.000910312
6 *412:A *357:A 0.000163199
7 *412:A *362:A 6.89796e-05
8 *412:A *380:Z 0.000533477
9 *412:A *405:A 2.24252e-05
10 *412:A *408:A 0
11 *412:A *410:A 0.00126282
12 *412:A *413:A 3.73442e-05
13 *412:A *414:A 0
14 *412:A *415:A 0
*RES
1 chanx_right_in[0] *412:A 24.5209 
*END

*D_NET *6 0.0029123
*CONN
*P chanx_right_in[1] I
*I *413:A I *D sky130_fd_sc_hd__clkbuf_1
*CAP
1 chanx_right_in[1] 0.00115936
2 *413:A 0.00115936
3 *413:A *337:A 0
4 *413:A *378:TE_B 0.000234349
5 *413:A *389:A 0.00026617
6 *413:A *414:A 3.44492e-05
7 *413:A *74:31 2.12652e-05
8 *413:A *90:12 0
9 *412:A *413:A 3.73442e-05
*RES
1 chanx_right_in[1] *413:A 22.0022 
*END

*D_NET *7 0.0018476
*CONN
*P chanx_right_in[2] I
*I *414:A I *D sky130_fd_sc_hd__clkbuf_1
*CAP
1 chanx_right_in[2] 0.000653005
2 *414:A 0.000653005
3 *414:A *337:A 4.99619e-05
4 *414:A *367:TE_B 0
5 *414:A *379:TE_B 0.000108013
6 *414:A *415:A 0.000203573
7 *414:A *83:18 9.48226e-05
8 *414:A *90:12 5.07734e-05
9 *406:A *414:A 0
10 *412:A *414:A 0
11 *413:A *414:A 3.44492e-05
*RES
1 chanx_right_in[2] *414:A 14.0418 
*END

*D_NET *8 0.00308249
*CONN
*P chanx_right_in[3] I
*I *415:A I *D sky130_fd_sc_hd__clkbuf_1
*CAP
1 chanx_right_in[3] 0.00105
2 *415:A 0.00105
3 *415:A *330:A 9.70043e-06
4 *415:A *338:A 0.000117626
5 *415:A *357:A 8.77516e-05
6 *415:A *363:A 1.88656e-05
7 *415:A *377:A 0
8 *415:A *405:A 0
9 *415:A *407:A 1.79483e-05
10 *415:A *408:A 0.00019612
11 *415:A *416:A 0.000274941
12 *415:A *417:A 0
13 *406:A *415:A 5.59592e-05
14 *412:A *415:A 0
15 *414:A *415:A 0.000203573
*RES
1 chanx_right_in[3] *415:A 12.032 
*END

*D_NET *9 0.00284583
*CONN
*P chanx_right_in[4] I
*I *416:A I *D sky130_fd_sc_hd__clkbuf_1
*CAP
1 chanx_right_in[4] 0.00103203
2 *416:A 0.00103203
3 *416:A *330:A 6.91032e-05
4 *416:A *367:TE_B 2.3193e-05
5 *416:A *417:A 0.000414525
6 *415:A *416:A 0.000274941
*RES
1 chanx_right_in[4] *416:A 8.1667 
*END

*D_NET *10 0.00875715
*CONN
*P chanx_right_in[5] I
*I *417:A I *D sky130_fd_sc_hd__clkbuf_1
*CAP
1 chanx_right_in[5] 0.00272078
2 *417:A 0.00272078
3 *417:A *314:A 0.000770897
4 *417:A *317:A 0.000145548
5 *417:A *330:A 0.000127569
6 *417:A *338:A 0.000385092
7 *417:A *340:A 7.83434e-05
8 *417:A *349:CLK 2.08208e-05
9 *417:A *360:A 0.00037227
10 *417:A *363:A 0.000595386
11 *417:A *380:A 4.82863e-05
12 *417:A *380:Z 8.52845e-05
13 *417:A *396:A 0
14 *417:A *397:A 0
15 *417:A *402:A 0
16 *417:A *403:A 4.29625e-05
17 *417:A *407:A 1.7635e-05
18 *417:A *408:A 0
19 *417:A *71:10 9.044e-05
20 *417:A *71:48 2.34891e-05
21 *417:A *103:44 9.70397e-05
22 *415:A *417:A 0
23 *416:A *417:A 0.000414525
*RES
1 chanx_right_in[5] *417:A 16.5585 
*END

*D_NET *11 0.00815533
*CONN
*P chanx_right_in[6] I
*I *396:A I *D sky130_fd_sc_hd__clkbuf_1
*CAP
1 chanx_right_in[6] 0.00250714
2 *396:A 0.00250714
3 *396:A *308:A 2.23477e-05
4 *396:A *309:A 0.000364239
5 *396:A *311:A 0.000115254
6 *396:A *336:A 7.93703e-05
7 *396:A *339:A 0.000496398
8 *396:A *340:A 4.9253e-06
9 *396:A *360:A 0.000170772
10 *396:A *361:A 0.000381908
11 *396:A *362:A 0.000156691
12 *396:A *381:TE_B 4.79395e-05
13 *396:A *397:A 7.41549e-05
14 *396:A *401:A 0.0001167
15 *396:A *402:A 8.23457e-05
16 *396:A *75:24 0.000896056
17 *396:A *109:16 0.000114307
18 *396:A *112:10 1.7635e-05
19 *411:A *396:A 0
20 *417:A *396:A 0
*RES
1 chanx_right_in[6] *396:A 26.4918 
*END

*D_NET *12 0.00197611
*CONN
*P chanx_right_in[7] I
*I *397:A I *D sky130_fd_sc_hd__clkbuf_1
*CAP
1 chanx_right_in[7] 0.000682406
2 *397:A 0.000682406
3 *397:A *312:A 5.09929e-05
4 *397:A *337:A 1.1561e-05
5 *397:A *366:A 0.000152503
6 *397:A *366:TE_B 0.000107378
7 *397:A *379:TE_B 8.52883e-05
8 *397:A *398:A 0.000129415
9 *396:A *397:A 7.41549e-05
10 *411:A *397:A 0
11 *417:A *397:A 0
*RES
1 chanx_right_in[7] *397:A 11.5217 
*END

*D_NET *13 0.00219651
*CONN
*P chanx_right_in[8] I
*I *398:A I *D sky130_fd_sc_hd__clkbuf_1
*CAP
1 chanx_right_in[8] 0.000825382
2 *398:A 0.000825382
3 *398:A chanx_right_out[0] 1.88656e-05
4 *398:A *333:A 3.7837e-05
5 *398:A *337:A 0.000131942
6 *398:A *366:Z 0
7 *398:A *368:TE_B 0
8 *398:A *409:A 0
9 *398:A *419:A 0.000105814
10 *398:A *420:A 5.07419e-05
11 ccff_tail *398:A 1.88656e-05
12 *397:A *398:A 0.000129415
13 *411:A *398:A 5.22689e-05
*RES
1 chanx_right_in[8] *398:A 16.7418 
*END

*D_NET *14 0.000633033
*CONN
*P chanx_right_out[0] O
*I *419:X O *D sky130_fd_sc_hd__buf_2
*CAP
1 chanx_right_out[0] 0.00023767
2 *419:X 0.00023767
3 chanx_right_out[0] chanx_right_out[1] 5.97098e-05
4 chanx_right_out[0] *409:A 6.74072e-05
5 chanx_right_out[0] *419:A 1.17114e-05
6 ccff_tail chanx_right_out[0] 0
7 *398:A chanx_right_out[0] 1.88656e-05
*RES
1 *419:X chanx_right_out[0] 4.90503 
*END

*D_NET *15 0.000757617
*CONN
*P chanx_right_out[1] O
*I *420:X O *D sky130_fd_sc_hd__buf_2
*CAP
1 chanx_right_out[1] 0.000278121
2 *420:X 0.000278121
3 chanx_right_out[1] chanx_right_out[2] 0.000129415
4 chanx_right_out[1] chanx_right_out[3] 0
5 chanx_right_out[1] *409:A 0
6 chanx_right_out[1] *420:A 1.22505e-05
7 chanx_right_out[0] chanx_right_out[1] 5.97098e-05
*RES
1 *420:X chanx_right_out[1] 5.57463 
*END

*D_NET *16 0.000675608
*CONN
*P chanx_right_out[2] O
*I *421:X O *D sky130_fd_sc_hd__clkbuf_4
*CAP
1 chanx_right_out[2] 0.000185539
2 *421:X 0.000185539
3 chanx_right_out[2] chanx_right_out[3] 0.000175114
4 chanx_right_out[2] *423:A 0
5 chanx_right_out[1] chanx_right_out[2] 0.000129415
*RES
1 *421:X chanx_right_out[2] 5.29677 
*END

*D_NET *17 0.00123026
*CONN
*P chanx_right_out[3] O
*I *422:X O *D sky130_fd_sc_hd__buf_2
*CAP
1 chanx_right_out[3] 0.000466404
2 *422:X 0.000466404
3 chanx_right_out[3] chanx_right_out[4] 0
4 chanx_right_out[3] chanx_right_out[5] 0
5 chanx_right_out[3] *421:A 0.000122337
6 chanx_right_out[1] chanx_right_out[3] 0
7 chanx_right_out[2] chanx_right_out[3] 0.000175114
*RES
1 *422:X chanx_right_out[3] 8.22377 
*END

*D_NET *18 0.000863463
*CONN
*P chanx_right_out[4] O
*I *423:X O *D sky130_fd_sc_hd__buf_2
*CAP
1 chanx_right_out[4] 0.000281589
2 *423:X 0.000281589
3 chanx_right_out[4] chanx_right_out[5] 0.000237798
4 chanx_right_out[4] *426:A 6.24871e-05
5 chanx_right_out[3] chanx_right_out[4] 0
*RES
1 *423:X chanx_right_out[4] 5.53157 
*END

*D_NET *19 0.00185075
*CONN
*P chanx_right_out[5] O
*I *424:X O *D sky130_fd_sc_hd__clkbuf_4
*CAP
1 chanx_right_out[5] 0.000776102
2 *424:X 0.000776102
3 chanx_right_out[5] chanx_right_out[6] 8.09642e-06
4 chanx_right_out[5] *424:A 5.26518e-05
5 chanx_right_out[3] chanx_right_out[5] 0
6 chanx_right_out[4] chanx_right_out[5] 0.000237798
*RES
1 *424:X chanx_right_out[5] 7.0253 
*END

*D_NET *20 0.00167735
*CONN
*P chanx_right_out[6] O
*I *425:X O *D sky130_fd_sc_hd__clkbuf_4
*CAP
1 chanx_right_out[6] 0.000541033
2 *425:X 0.000541033
3 chanx_right_out[6] chanx_right_out[7] 0.000113734
4 chanx_right_out[6] chanx_right_out[8] 0.000245458
5 chanx_right_out[6] *426:A 0.000228
6 chanx_right_out[6] *427:A 0
7 chanx_right_out[5] chanx_right_out[6] 8.09642e-06
*RES
1 *425:X chanx_right_out[6] 10.9148 
*END

*D_NET *21 0.0010503
*CONN
*P chanx_right_out[7] O
*I *426:X O *D sky130_fd_sc_hd__clkbuf_4
*CAP
1 chanx_right_out[7] 0.000411415
2 *426:X 0.000411415
3 chanx_right_out[7] chanx_right_out[8] 0.000113734
4 chanx_right_out[6] chanx_right_out[7] 0.000113734
*RES
1 *426:X chanx_right_out[7] 9.88677 
*END

*D_NET *22 0.00164178
*CONN
*P chanx_right_out[8] O
*I *427:X O *D sky130_fd_sc_hd__clkbuf_4
*CAP
1 chanx_right_out[8] 0.000641295
2 *427:X 0.000641295
3 chanx_right_out[6] chanx_right_out[8] 0.000245458
4 chanx_right_out[7] chanx_right_out[8] 0.000113734
*RES
1 *427:X chanx_right_out[8] 12.2764 
*END

*D_NET *23 0.00228899
*CONN
*P chany_bottom_in[0] I
*I *399:A I *D sky130_fd_sc_hd__clkbuf_1
*CAP
1 chany_bottom_in[0] 0.000559163
2 *399:A 0.000559163
3 *399:A *310:A 0.000107921
4 *399:A *316:A 6.95422e-05
5 *399:A *339:A 9.13204e-05
6 *399:A *341:A 0.000133253
7 *399:A *400:A 0.000670532
8 *399:A *429:A 2.65814e-06
9 *399:A *434:A 9.54399e-05
10 *395:A *399:A 0
*RES
1 chany_bottom_in[0] *399:A 17.505 
*END

*D_NET *24 0.00312826
*CONN
*P chany_bottom_in[1] I
*I *400:A I *D sky130_fd_sc_hd__buf_1
*CAP
1 chany_bottom_in[1] 0.000840647
2 *400:A 0.000840647
3 *400:A *336:A 1.61733e-05
4 *400:A *352:A 0
5 *400:A *353:A 2.76356e-05
6 *400:A *360:A 0.000144673
7 *400:A *364:A 0
8 *400:A *401:A 0
9 *400:A *408:A 0
10 *400:A *433:A 0.000231557
11 *400:A *434:A 0.000356397
12 *400:A *109:16 0
13 *399:A *400:A 0.000670532
*RES
1 chany_bottom_in[1] *400:A 23.955 
*END

*D_NET *25 0.00271659
*CONN
*P chany_bottom_in[2] I
*I *401:A I *D sky130_fd_sc_hd__buf_1
*CAP
1 chany_bottom_in[2] 0.000954123
2 *401:A 0.000954123
3 *401:A *311:A 0.000115254
4 *401:A *356:A 0
5 *401:A *362:A 0.00023209
6 *401:A *364:A 4.66108e-05
7 *401:A *377:TE_B 0
8 *401:A *380:TE_B 0.000275046
9 *401:A *390:A 0
10 *401:A *402:A 0
11 *401:A *407:A 0
12 *401:A *408:A 0
13 *401:A *76:12 0
14 *401:A *109:16 2.26381e-05
15 *396:A *401:A 0.0001167
16 *400:A *401:A 0
*RES
1 chany_bottom_in[2] *401:A 22.515 
*END

*D_NET *26 0.00306136
*CONN
*P chany_bottom_in[3] I
*I *402:A I *D sky130_fd_sc_hd__buf_1
*CAP
1 chany_bottom_in[3] 0.000836333
2 *402:A 0.000836333
3 *402:A *311:A 0.000230697
4 *402:A *314:A 0.000423766
5 *402:A *315:A 0.000119756
6 *402:A *340:A 3.84026e-05
7 *402:A *349:CLK 0
8 *402:A *359:A 6.14057e-05
9 *402:A *377:TE_B 4.66108e-05
10 *402:A *384:TE_B 0.000271595
11 *402:A *385:A 0
12 *402:A *403:A 8.53113e-06
13 *402:A *428:A 3.50152e-06
14 *402:A *71:10 0
15 *402:A *76:12 8.64421e-05
16 *402:A *103:44 1.56428e-05
17 *396:A *402:A 8.23457e-05
18 *401:A *402:A 0
19 *417:A *402:A 0
*RES
1 chany_bottom_in[3] *402:A 20.505 
*END

*D_NET *27 0.00313004
*CONN
*P chany_bottom_in[4] I
*I *403:A I *D sky130_fd_sc_hd__clkbuf_1
*CAP
1 chany_bottom_in[4] 0.00103841
2 *403:A 0.00103841
3 *403:A *310:A 9.28507e-05
4 *403:A *330:A 7.831e-05
5 *403:A *339:A 1.12578e-05
6 *403:A *340:A 0.000106723
7 *403:A *349:CLK 0.000117008
8 *403:A *349:D 5.17877e-05
9 *403:A *350:D 0.000257353
10 *403:A *359:A 2.51944e-05
11 *403:A *380:Z 5.11729e-05
12 *403:A *383:A 2.90859e-05
13 *403:A *384:TE_B 4.99205e-05
14 *403:A *390:A 4.47209e-05
15 *403:A *404:A 0
16 *403:A *71:20 8.63479e-05
17 *402:A *403:A 8.53113e-06
18 *417:A *403:A 4.29625e-05
*RES
1 chany_bottom_in[4] *403:A 26.305 
*END

*D_NET *28 0.000910255
*CONN
*P chany_bottom_in[5] I
*I *404:A I *D sky130_fd_sc_hd__clkbuf_1
*CAP
1 chany_bottom_in[5] 0.000390514
2 *404:A 0.000390514
3 *404:A *316:A 0.000124668
4 *404:A *330:A 0
5 *404:A *386:A 4.55864e-06
6 *404:A *410:A 0
7 *403:A *404:A 0
*RES
1 chany_bottom_in[5] *404:A 10.35 
*END

*D_NET *29 0.000958192
*CONN
*P chany_bottom_in[6] I
*I *405:A I *D sky130_fd_sc_hd__clkbuf_1
*CAP
1 chany_bottom_in[6] 0.000467883
2 *405:A 0.000467883
3 *405:A *362:A 0
4 *405:A *407:A 0
5 *412:A *405:A 2.24252e-05
6 *415:A *405:A 0
*RES
1 chany_bottom_in[6] *405:A 12.375 
*END

*D_NET *30 0.0042116
*CONN
*P chany_bottom_in[7] I
*I *407:A I *D sky130_fd_sc_hd__buf_1
*CAP
1 chany_bottom_in[7] 0.000832612
2 *407:A 0.000832612
3 *407:A *362:A 0.00133011
4 *407:A *377:A 1.61831e-05
5 *407:A *377:TE_B 0.0011645
6 *407:A *408:A 0
7 *401:A *407:A 0
8 *405:A *407:A 0
9 *415:A *407:A 1.79483e-05
10 *417:A *407:A 1.7635e-05
*RES
1 chany_bottom_in[7] *407:A 30.325 
*END

*D_NET *31 0.00605993
*CONN
*P chany_bottom_in[8] I
*I *408:A I *D sky130_fd_sc_hd__buf_1
*CAP
1 chany_bottom_in[8] 0.00247445
2 *408:A 0.00247445
3 *408:A *330:A 0
4 *408:A *362:A 0
5 *408:A *363:A 0.000173265
6 *408:A *385:A 0.000741644
7 *400:A *408:A 0
8 *401:A *408:A 0
9 *406:A *408:A 0
10 *407:A *408:A 0
11 *412:A *408:A 0
12 *415:A *408:A 0.00019612
13 *417:A *408:A 0
*RES
1 chany_bottom_in[8] *408:A 15.2965 
*END

*D_NET *32 0.000614762
*CONN
*P chany_bottom_out[0] O
*I *428:X O *D sky130_fd_sc_hd__clkbuf_4
*CAP
1 chany_bottom_out[0] 0.000291749
2 *428:X 0.000291749
3 chany_bottom_out[0] chany_bottom_out[1] 0
4 chany_bottom_out[0] *363:A 3.12639e-05
5 chany_bottom_out[0] *385:A 0
6 *395:A chany_bottom_out[0] 0
*RES
1 *428:X chany_bottom_out[0] 5.57717 
*END

*D_NET *33 0.000686225
*CONN
*P chany_bottom_out[1] O
*I *429:X O *D sky130_fd_sc_hd__clkbuf_4
*CAP
1 chany_bottom_out[1] 0.000343113
2 *429:X 0.000343113
3 chany_bottom_out[1] chany_bottom_out[2] 0
4 chany_bottom_out[1] *363:A 0
5 chany_bottom_out[0] chany_bottom_out[1] 0
6 *395:A chany_bottom_out[1] 0
*RES
1 *429:X chany_bottom_out[1] 7.75043 
*END

*D_NET *34 0.000674274
*CONN
*P chany_bottom_out[2] O
*I *430:X O *D sky130_fd_sc_hd__clkbuf_4
*CAP
1 chany_bottom_out[2] 0.000337137
2 *430:X 0.000337137
3 chany_bottom_out[2] chany_bottom_out[3] 0
4 chany_bottom_out[2] *363:A 0
5 chany_bottom_out[1] chany_bottom_out[2] 0
*RES
1 *430:X chany_bottom_out[2] 7.75043 
*END

*D_NET *35 0.000681715
*CONN
*P chany_bottom_out[3] O
*I *431:X O *D sky130_fd_sc_hd__clkbuf_4
*CAP
1 chany_bottom_out[3] 0.000340858
2 *431:X 0.000340858
3 chany_bottom_out[3] chany_bottom_out[4] 0
4 chany_bottom_out[3] *431:A 0
5 chany_bottom_out[2] chany_bottom_out[3] 0
*RES
1 *431:X chany_bottom_out[3] 7.75043 
*END

*D_NET *36 0.000584799
*CONN
*P chany_bottom_out[4] O
*I *432:X O *D sky130_fd_sc_hd__clkbuf_4
*CAP
1 chany_bottom_out[4] 0.0002924
2 *432:X 0.0002924
3 chany_bottom_out[4] chany_bottom_out[5] 0
4 chany_bottom_out[4] *434:A 0
5 chany_bottom_out[3] chany_bottom_out[4] 0
*RES
1 *432:X chany_bottom_out[4] 5.92503 
*END

*D_NET *37 0.000677277
*CONN
*P chany_bottom_out[5] O
*I *433:X O *D sky130_fd_sc_hd__clkbuf_4
*CAP
1 chany_bottom_out[5] 0.000338639
2 *433:X 0.000338639
3 chany_bottom_out[5] chany_bottom_out[6] 0
4 chany_bottom_out[5] *434:A 0
5 chany_bottom_out[4] chany_bottom_out[5] 0
*RES
1 *433:X chany_bottom_out[5] 5.3703 
*END

*D_NET *38 0.000943331
*CONN
*P chany_bottom_out[6] O
*I *434:X O *D sky130_fd_sc_hd__clkbuf_4
*CAP
1 chany_bottom_out[6] 0.00046984
2 *434:X 0.00046984
3 chany_bottom_out[6] chany_bottom_out[7] 0
4 chany_bottom_out[6] *434:A 3.64998e-06
5 chany_bottom_out[5] chany_bottom_out[6] 0
*RES
1 *434:X chany_bottom_out[6] 9.13043 
*END

*D_NET *39 0.000898305
*CONN
*P chany_bottom_out[7] O
*I *435:X O *D sky130_fd_sc_hd__clkbuf_4
*CAP
1 chany_bottom_out[7] 0.000449152
2 *435:X 0.000449152
3 chany_bottom_out[7] chany_bottom_out[8] 0
4 chany_bottom_out[7] *434:A 0
5 chany_bottom_out[6] chany_bottom_out[7] 0
*RES
1 *435:X chany_bottom_out[7] 7.24143 
*END

*D_NET *40 0.00167881
*CONN
*P chany_bottom_out[8] O
*I *436:X O *D sky130_fd_sc_hd__clkbuf_4
*CAP
1 chany_bottom_out[8] 0.000839403
2 *436:X 0.000839403
3 chany_bottom_out[7] chany_bottom_out[8] 0
*RES
1 *436:X chany_bottom_out[8] 11.5858 
*END

*D_NET *41 0.00563804
*CONN
*P prog_clk I
*I *385:A I *D sky130_fd_sc_hd__clkbuf_16
*CAP
1 prog_clk 0.00192029
2 *385:A 0.00192029
3 *385:A *308:A 6.21027e-05
4 *385:A *339:A 4.87819e-05
5 *385:A *346:D 8.76811e-05
6 *385:A *356:A 0
7 *385:A *359:A 0.000556869
8 *385:A *363:A 0
9 *385:A *377:TE_B 0.000283005
10 *385:A *384:TE_B 0
11 *385:A *390:A 1.73775e-05
12 *385:A *76:12 0
13 chany_bottom_out[0] *385:A 0
14 *402:A *385:A 0
15 *408:A *385:A 0.000741644
*RES
1 prog_clk *385:A 25.1965 
*END

*D_NET *42 0.000632844
*CONN
*P right_bottom_grid_top_width_0_height_0_subtile_0__pin_O_2_ I
*I *409:A I *D sky130_fd_sc_hd__clkbuf_1
*CAP
1 right_bottom_grid_top_width_0_height_0_subtile_0__pin_O_2_ 0.000263793
2 *409:A 0.000263793
3 ccff_tail *409:A 3.78506e-05
4 chanx_right_out[0] *409:A 6.74072e-05
5 chanx_right_out[1] *409:A 0
6 *398:A *409:A 0
7 *411:A *409:A 0
*RES
1 right_bottom_grid_top_width_0_height_0_subtile_0__pin_O_2_ *409:A 6.29883 
*END

*D_NET *43 0.00354721
*CONN
*P right_top_grid_bottom_width_0_height_0_subtile_0__pin_inpad_0_ I
*I *410:A I *D sky130_fd_sc_hd__buf_1
*CAP
1 right_top_grid_bottom_width_0_height_0_subtile_0__pin_inpad_0_ 0.00111805
2 *410:A 0.00111805
3 *410:A *316:A 0
4 *410:A *338:A 4.82863e-05
5 *404:A *410:A 0
6 *412:A *410:A 0.00126282
*RES
1 right_top_grid_bottom_width_0_height_0_subtile_0__pin_inpad_0_ *410:A 16.6309 
*END

*D_NET *46 0.000831336
*CONN
*I *309:A I *D sky130_fd_sc_hd__clkbuf_1
*I *308:X O *D sky130_fd_sc_hd__clkbuf_1
*CAP
1 *309:A 0.000168534
2 *308:X 0.000168534
3 *309:A *308:A 0.00013003
4 *396:A *309:A 0.000364239
*RES
1 *308:X *309:A 7.37 
*END

*D_NET *47 0.000943459
*CONN
*I *311:A I *D sky130_fd_sc_hd__clkbuf_1
*I *310:X O *D sky130_fd_sc_hd__clkbuf_1
*CAP
1 *311:A 0.000238211
2 *310:X 0.000238211
3 *311:A *310:A 5.83121e-06
4 *396:A *311:A 0.000115254
5 *401:A *311:A 0.000115254
6 *402:A *311:A 0.000230697
*RES
1 *310:X *311:A 11.1 
*END

*D_NET *48 0.000318813
*CONN
*I *315:A I *D sky130_fd_sc_hd__buf_1
*I *314:X O *D sky130_fd_sc_hd__clkbuf_1
*CAP
1 *315:A 7.83476e-05
2 *314:X 7.83476e-05
3 *315:A *340:A 4.23612e-05
4 *402:A *315:A 0.000119756
*RES
1 *314:X *315:A 4.955 
*END

*D_NET *49 0.00476256
*CONN
*I *317:A I *D sky130_fd_sc_hd__clkbuf_1
*I *316:X O *D sky130_fd_sc_hd__clkbuf_1
*CAP
1 *317:A 0.00123018
2 *316:X 0.00123018
3 *317:A *316:A 4.7804e-05
4 *317:A *331:A 0.000281402
5 *317:A *336:A 0.000137373
6 *317:A *338:A 8.34281e-06
7 *317:A *341:A 2.75145e-05
8 *317:A *357:A 8.8266e-05
9 *317:A *359:A 8.8266e-05
10 *317:A *380:A 0.000384834
11 *317:A *380:Z 0.000803434
12 *317:A *71:10 8.77516e-05
13 *412:A *317:A 0.000201654
14 *417:A *317:A 0.000145548
*RES
1 *316:X *317:A 29.82 
*END

*D_NET *50 0.000187602
*CONN
*I *321:A I *D sky130_fd_sc_hd__clkbuf_1
*I *320:X O *D sky130_fd_sc_hd__clkbuf_1
*CAP
1 *321:A 9.38011e-05
2 *320:X 9.38011e-05
*RES
1 *320:X *321:A 4.61 
*END

*D_NET *51 0.00055876
*CONN
*I *323:A I *D sky130_fd_sc_hd__clkbuf_1
*I *322:X O *D sky130_fd_sc_hd__clkbuf_1
*CAP
1 *323:A 0.000218037
2 *322:X 0.000218037
3 *323:A *318:A 3.68682e-05
4 *323:A *357:A 0
5 *323:A *374:TE_B 8.58181e-05
*RES
1 *322:X *323:A 10.86 
*END

*D_NET *52 0.00145157
*CONN
*I *325:A I *D sky130_fd_sc_hd__clkbuf_1
*I *324:X O *D sky130_fd_sc_hd__clkbuf_1
*CAP
1 *325:A 0.000505895
2 *324:X 0.000505895
3 *325:A *326:A 1.83756e-05
4 *325:A *332:A 0.000132961
5 *325:A *334:A 2.49909e-05
6 *325:A *368:TE_B 0.000245206
7 *325:A *418:A 0
8 *325:A *419:A 1.82476e-05
9 *325:A *95:8 0
*RES
1 *324:X *325:A 14.97 
*END

*D_NET *53 0.00124837
*CONN
*I *328:A I *D sky130_fd_sc_hd__clkbuf_1
*I *327:X O *D sky130_fd_sc_hd__clkbuf_1
*CAP
1 *328:A 0.000359766
2 *327:X 0.000359766
3 *328:A *331:A 7.20433e-05
4 *328:A *391:A 0.00025744
5 *328:A *77:14 3.50152e-06
6 *328:A *77:21 0.000195856
*RES
1 *327:X *328:A 9.545 
*END

*D_NET *54 0.00137267
*CONN
*I *365:TE_B I *D sky130_fd_sc_hd__ebufn_1
*I *329:Y O *D sky130_fd_sc_hd__inv_2
*CAP
1 *365:TE_B 0.000306317
2 *329:Y 0.000306317
3 *365:TE_B *329:A 5.83121e-06
4 *365:TE_B *365:A 8.5275e-05
5 *365:TE_B *372:Z 4.49945e-05
6 *365:TE_B *379:TE_B 0.000289111
7 *365:TE_B *75:14 0.000290461
8 *365:TE_B *83:18 4.43682e-05
*RES
1 *329:Y *365:TE_B 13.935 
*END

*D_NET *55 0.00100355
*CONN
*I *366:TE_B I *D sky130_fd_sc_hd__ebufn_2
*I *326:Y O *D sky130_fd_sc_hd__inv_2
*CAP
1 *366:TE_B 0.000148168
2 *326:Y 0.000148168
3 *366:TE_B *312:A 8.69583e-05
4 *366:TE_B *337:A 0.000388107
5 *366:TE_B *366:A 7.00889e-06
6 *366:TE_B *366:Z 0
7 *366:TE_B *372:Z 9.57611e-05
8 *366:TE_B *379:TE_B 2.20014e-05
9 *397:A *366:TE_B 0.000107378
*RES
1 *326:Y *366:TE_B 12.225 
*END

*D_NET *56 0.00149227
*CONN
*I *367:TE_B I *D sky130_fd_sc_hd__ebufn_1
*I *328:X O *D sky130_fd_sc_hd__clkbuf_1
*CAP
1 *367:TE_B 0.000574364
2 *328:X 0.000574364
3 *367:TE_B *366:A 0
4 *367:TE_B *377:Z 0.000155717
5 *367:TE_B *378:TE_B 0