*SPEF "ieee 1481-1999"
*DESIGN "sb_0__0_"
*DATE "11:11:11 Fri 11 11, 1111"
*VENDOR "OpenRCX"
*PROGRAM "Parallel Extraction"
*VERSION "1.0"
*DESIGN_FLOW "NAME_SCOPE LOCAL" "PIN_CAP NONE"
*DIVIDER /
*DELIMITER :
*BUS_DELIMITER []
*T_UNIT 1 NS
*C_UNIT 1 PF
*R_UNIT 1 OHM
*L_UNIT 1 HENRY

*NAME_MAP
*1 ccff_head
*2 ccff_tail
*3 chanx_right_in[0]
*4 chanx_right_in[1]
*5 chanx_right_in[2]
*6 chanx_right_in[3]
*7 chanx_right_in[4]
*8 chanx_right_in[5]
*9 chanx_right_in[6]
*10 chanx_right_in[7]
*11 chanx_right_in[8]
*12 chanx_right_out[0]
*13 chanx_right_out[1]
*14 chanx_right_out[2]
*15 chanx_right_out[3]
*16 chanx_right_out[4]
*17 chanx_right_out[5]
*18 chanx_right_out[6]
*19 chanx_right_out[7]
*20 chanx_right_out[8]
*21 chany_top_in[0]
*22 chany_top_in[1]
*23 chany_top_in[2]
*24 chany_top_in[3]
*25 chany_top_in[4]
*26 chany_top_in[5]
*27 chany_top_in[6]
*28 chany_top_in[7]
*29 chany_top_in[8]
*30 chany_top_out[0]
*31 chany_top_out[1]
*32 chany_top_out[2]
*33 chany_top_out[3]
*34 chany_top_out[4]
*35 chany_top_out[5]
*36 chany_top_out[6]
*37 chany_top_out[7]
*38 chany_top_out[8]
*39 prog_clk
*40 right_bottom_grid_top_width_0_height_0_subtile_0__pin_inpad_0_
*41 right_top_grid_bottom_width_0_height_0_subtile_0__pin_O_0_
*42 top_left_grid_right_width_0_height_0_subtile_0__pin_inpad_0_
*43 top_right_grid_left_width_0_height_0_subtile_0__pin_O_1_
*46 _000_
*47 _001_
*48 _002_
*49 _003_
*50 _004_
*51 _005_
*52 _006_
*53 _007_
*54 _008_
*55 _009_
*56 _010_
*57 _011_
*58 _012_
*59 _013_
*60 _014_
*61 _015_
*62 _016_
*63 _017_
*64 _018_
*65 _019_
*66 _020_
*67 _021_
*68 _022_
*69 _023_
*70 clknet_0_prog_clk
*71 clknet_1_0__leaf_prog_clk
*72 clknet_1_1__leaf_prog_clk
*73 mem_right_track_0\.DFF_0_\.D
*74 mem_right_track_0\.DFF_0_\.Q
*75 mem_right_track_0\.DFF_1_\.Q
*76 mem_right_track_2\.DFF_0_\.Q
*77 mem_top_track_0\.DFF_0_\.Q
*78 mem_top_track_0\.DFF_1_\.Q
*79 mem_top_track_2\.DFF_0_\.Q
*80 mux_right_track_0\.INVTX1_0_\.out
*81 mux_right_track_0\.INVTX1_1_\.out
*82 mux_right_track_0\.mux_l1_in_0_\.TGATE_0_\.out
*83 mux_right_track_0\.mux_l2_in_0_\.TGATE_0_\.out
*84 mux_right_track_2\.INVTX1_0_\.out
*85 mux_right_track_2\.INVTX1_1_\.out
*86 mux_right_track_2\.mux_l1_in_0_\.TGATE_0_\.out
*87 mux_right_track_2\.mux_l2_in_0_\.TGATE_0_\.out
*88 mux_top_track_0\.INVTX1_0_\.out
*89 mux_top_track_0\.INVTX1_1_\.out
*90 mux_top_track_0\.mux_l1_in_0_\.TGATE_0_\.out
*91 mux_top_track_0\.mux_l2_in_0_\.TGATE_0_\.out
*92 mux_top_track_2\.INVTX1_0_\.out
*93 mux_top_track_2\.INVTX1_1_\.out
*94 mux_top_track_2\.mux_l1_in_0_\.TGATE_0_\.out
*95 mux_top_track_2\.mux_l2_in_0_\.TGATE_0_\.out
*96 net1
*97 net10
*98 net11
*99 net12
*100 net13
*101 net14
*102 net15
*103 net16
*104 net17
*105 net18
*106 net19
*107 net2
*108 net20
*109 net21
*110 net22
*111 net23
*112 net24
*113 net25
*114 net26
*115 net27
*116 net28
*117 net29
*118 net3
*119 net30
*120 net31
*121 net32
*122 net33
*123 net34
*124 net35
*125 net36
*126 net37
*127 net38
*128 net39
*129 net4
*130 net40
*131 net41
*132 net42
*133 net43
*134 net44
*135 net45
*136 net46
*137 net47
*138 net48
*139 net49
*140 net5
*141 net50
*142 net51
*143 net52
*144 net53
*145 net6
*146 net7
*147 net8
*148 net9
*149 FILLER_0_0_101
*150 FILLER_0_0_111
*151 FILLER_0_0_21
*152 FILLER_0_0_27
*153 FILLER_0_0_35
*154 FILLER_0_0_41
*155 FILLER_0_0_48
*156 FILLER_0_0_63
*157 FILLER_0_0_69
*158 FILLER_0_0_78
*159 FILLER_0_0_83
*160 FILLER_0_0_85
*161 FILLER_0_0_93
*162 FILLER_0_0_97
*163 FILLER_0_10_117
*164 FILLER_0_10_15
*165 FILLER_0_10_27
*166 FILLER_0_10_29
*167 FILLER_0_10_3
*168 FILLER_0_10_41
*169 FILLER_0_10_53
*170 FILLER_0_10_81
*171 FILLER_0_10_94
*172 FILLER_0_11_102
*173 FILLER_0_11_106
*174 FILLER_0_11_113
*175 FILLER_0_11_18
*176 FILLER_0_11_30
*177 FILLER_0_11_42
*178 FILLER_0_11_54
*179 FILLER_0_11_57
*180 FILLER_0_11_6
*181 FILLER_0_11_69
*182 FILLER_0_12_104
*183 FILLER_0_12_114
*184 FILLER_0_12_122
*185 FILLER_0_12_15
*186 FILLER_0_12_27
*187 FILLER_0_12_29
*188 FILLER_0_12_3
*189 FILLER_0_12_41
*190 FILLER_0_12_53
*191 FILLER_0_12_65
*192 FILLER_0_12_81
*193 FILLER_0_13_103
*194 FILLER_0_13_109
*195 FILLER_0_13_113
*196 FILLER_0_13_117
*197 FILLER_0_13_18
*198 FILLER_0_13_30
*199 FILLER_0_13_42
*200 FILLER_0_13_54
*201 FILLER_0_13_57
*202 FILLER_0_13_6
*203 FILLER_0_13_69
*204 FILLER_0_13_81
*205 FILLER_0_13_95
*206 FILLER_0_14_104
*207 FILLER_0_14_116
*208 FILLER_0_14_124
*209 FILLER_0_14_15
*210 FILLER_0_14_27
*211 FILLER_0_14_29
*212 FILLER_0_14_3
*213 FILLER_0_14_41
*214 FILLER_0_14_53
*215 FILLER_0_14_65
*216 FILLER_0_14_77
*217 FILLER_0_14_83
*218 FILLER_0_14_85
*219 FILLER_0_14_92
*220 FILLER_0_15_111
*221 FILLER_0_15_113
*222 FILLER_0_15_21
*223 FILLER_0_15_33
*224 FILLER_0_15_45
*225 FILLER_0_15_53
*226 FILLER_0_15_57
*227 FILLER_0_15_69
*228 FILLER_0_15_81
*229 FILLER_0_15_9
*230 FILLER_0_15_90
*231 FILLER_0_16_106
*232 FILLER_0_16_119
*233 FILLER_0_16_13
*234 FILLER_0_16_20
*235 FILLER_0_16_24
*236 FILLER_0_16_29
*237 FILLER_0_16_3
*238 FILLER_0_16_37
*239 FILLER_0_16_41
*240 FILLER_0_16_49
*241 FILLER_0_16_54
*242 FILLER_0_16_57
*243 FILLER_0_16_63
*244 FILLER_0_16_67
*245 FILLER_0_16_75
*246 FILLER_0_16_80
*247 FILLER_0_16_96
*248 FILLER_0_1_105
*249 FILLER_0_1_111
*250 FILLER_0_1_113
*251 FILLER_0_1_118
*252 FILLER_0_1_15
*253 FILLER_0_1_27
*254 FILLER_0_1_3
*255 FILLER_0_1_39
*256 FILLER_0_1_51
*257 FILLER_0_1_55
*258 FILLER_0_1_57
*259 FILLER_0_1_69
*260 FILLER_0_1_81
*261 FILLER_0_1_93
*262 FILLER_0_2_109
*263 FILLER_0_2_117
*264 FILLER_0_2_121
*265 FILLER_0_2_15
*266 FILLER_0_2_27
*267 FILLER_0_2_29
*268 FILLER_0_2_3
*269 FILLER_0_2_41
*270 FILLER_0_2_53
*271 FILLER_0_2_65
*272 FILLER_0_2_77
*273 FILLER_0_2_83
*274 FILLER_0_2_85
*275 FILLER_0_2_97
*276 FILLER_0_3_105
*277 FILLER_0_3_111
*278 FILLER_0_3_113
*279 FILLER_0_3_18
*280 FILLER_0_3_30
*281 FILLER_0_3_42
*282 FILLER_0_3_54
*283 FILLER_0_3_57
*284 FILLER_0_3_6
*285 FILLER_0_3_69
*286 FILLER_0_3_81
*287 FILLER_0_3_93
*288 FILLER_0_4_109
*289 FILLER_0_4_121
*290 FILLER_0_4_15
*291 FILLER_0_4_27
*292 FILLER_0_4_29
*293 FILLER_0_4_3
*294 FILLER_0_4_41
*295 FILLER_0_4_53
*296 FILLER_0_4_65
*297 FILLER_0_4_77
*298 FILLER_0_4_83
*299 FILLER_0_4_85
*300 FILLER_0_4_97
*301 FILLER_0_5_103
*302 FILLER_0_5_111
*303 FILLER_0_5_113
*304 FILLER_0_5_117
*305 FILLER_0_5_18
*306 FILLER_0_5_30
*307 FILLER_0_5_42
*308 FILLER_0_5_46
*309 FILLER_0_5_57
*310 FILLER_0_5_6
*311 FILLER_0_5_61
*312 FILLER_0_5_73
*313 FILLER_0_5_85
*314 FILLER_0_5_91
*315 FILLER_0_6_10
*316 FILLER_0_6_107
*317 FILLER_0_6_111
*318 FILLER_0_6_116
*319 FILLER_0_6_123
*320 FILLER_0_6_20
*321 FILLER_0_6_29
*322 FILLER_0_6_3
*323 FILLER_0_6_41
*324 FILLER_0_6_74
*325 FILLER_0_6_82
*326 FILLER_0_6_85
*327 FILLER_0_6_89
*328 FILLER_0_7_100
*329 FILLER_0_7_110
*330 FILLER_0_7_21
*331 FILLER_0_7_3
*332 FILLER_0_7_33
*333 FILLER_0_7_51
*334 FILLER_0_7_68
*335 FILLER_0_7_86
*336 FILLER_0_7_90
*337 FILLER_0_8_10
*338 FILLER_0_8_102
*339 FILLER_0_8_108
*340 FILLER_0_8_112
*341 FILLER_0_8_116
*342 FILLER_0_8_22
*343 FILLER_0_8_29
*344 FILLER_0_8_3
*345 FILLER_0_8_41
*346 FILLER_0_8_83
*347 FILLER_0_8_85
*348 FILLER_0_9_10
*349 FILLER_0_9_111
*350 FILLER_0_9_121
*351 FILLER_0_9_22
*352 FILLER_0_9_3
*353 FILLER_0_9_34
*354 FILLER_0_9_46
*355 FILLER_0_9_55
*356 PHY_0
*357 PHY_1
*358 PHY_10
*359 PHY_11
*360 PHY_12
*361 PHY_13
*362 PHY_14
*363 PHY_15
*364 PHY_16
*365 PHY_17
*366 PHY_18
*367 PHY_19
*368 PHY_2
*369 PHY_20
*370 PHY_21
*371 PHY_22
*372 PHY_23
*373 PHY_24
*374 PHY_25
*375 PHY_26
*376 PHY_27
*377 PHY_28
*378 PHY_29
*379 PHY_3
*380 PHY_30
*381 PHY_31
*382 PHY_32
*383 PHY_33
*384 PHY_4
*385 PHY_5
*386 PHY_6
*387 PHY_7
*388 PHY_8
*389 PHY_9
*390 TAP_34
*391 TAP_35
*392 TAP_36
*393 TAP_37
*394 TAP_38
*395 TAP_39
*396 TAP_40
*397 TAP_41
*398 TAP_42
*399 TAP_43
*400 TAP_44
*401 TAP_45
*402 TAP_46
*403 TAP_47
*404 TAP_48
*405 TAP_49
*406 TAP_50
*407 TAP_51
*408 TAP_52
*409 TAP_53
*410 TAP_54
*411 TAP_55
*412 TAP_56
*413 TAP_57
*414 TAP_58
*415 TAP_59
*416 TAP_60
*417 TAP_61
*418 TAP_62
*419 TAP_63
*420 TAP_64
*421 TAP_65
*422 TAP_66
*423 TAP_67
*424 TAP_68
*425 TAP_69
*426 TAP_70
*427 TAP_71
*428 _028_
*429 _029_
*430 _030_
*431 _031_
*432 _032_
*433 _033_
*434 _034_
*435 _035_
*436 _036_
*437 _037_
*438 _038_
*439 _039_
*440 _040_
*441 _041_
*442 _042_
*443 _043_
*444 _044_
*445 _045_
*446 _046_
*447 _047_
*448 _048_
*449 _049_
*450 _050_
*451 _051_
*452 _052_
*453 _053_
*454 _054_
*455 _055_
*456 _056_
*457 _057_
*458 _058_
*459 _059_
*460 _060_
*461 _061_
*462 _062_
*463 _063_
*464 _064_
*465 _065_
*466 _066_
*467 _067_
*468 _068_
*469 _069_
*470 _070_
*471 _071_
*472 _076_
*473 _077_
*474 _078_
*475 _079_
*476 _080_
*477 _081_
*478 _082_
*479 _083_
*480 _084_
*481 _085_
*482 _086_
*483 _087_
*484 _088_
*485 _089_
*486 _090_
*487 _091_
*488 _092_
*489 _093_
*490 _093__43
*491 _094_
*492 _094__44
*493 _095_
*494 _096_
*495 _097_
*496 _098_
*497 _098__45
*498 _099_
*499 _100_
*500 _101_
*501 _102_
*502 _103_
*503 _103__46
*504 _104_
*505 _105_
*506 clkbuf_0_prog_clk
*507 clkbuf_1_0__f_prog_clk
*508 clkbuf_1_1__f_prog_clk
*509 hold1
*510 hold2
*511 hold3
*512 hold4
*513 hold5
*514 hold6
*515 hold7
*516 input1
*517 input10
*518 input11
*519 input12
*520 input13
*521 input14
*522 input15
*523 input16
*524 input17
*525 input18
*526 input19
*527 input2
*528 input20
*529 input21
*530 input22
*531 input23
*532 input3
*533 input4
*534 input5
*535 input6
*536 input7
*537 input8
*538 input9
*539 output24
*540 output25
*541 output26
*542 output27
*543 output28
*544 output29
*545 output30
*546 output31
*547 output32
*548 output33
*549 output34
*550 output35
*551 output36
*552 output37
*553 output38
*554 output39
*555 output40
*556 output41
*557 output42

*PORTS
ccff_head I
ccff_tail O
chanx_right_in[0] I
chanx_right_in[1] I
chanx_right_in[2] I
chanx_right_in[3] I
chanx_right_in[4] I
chanx_right_in[5] I
chanx_right_in[6] I
chanx_right_in[7] I
chanx_right_in[8] I
chanx_right_out[0] O
chanx_right_out[1] O
chanx_right_out[2] O
chanx_right_out[3] O
chanx_right_out[4] O
chanx_right_out[5] O
chanx_right_out[6] O
chanx_right_out[7] O
chanx_right_out[8] O
chany_top_in[0] I
chany_top_in[1] I
chany_top_in[2] I
chany_top_in[3] I
chany_top_in[4] I
chany_top_in[5] I
chany_top_in[6] I
chany_top_in[7] I
chany_top_in[8] I
chany_top_out[0] O
chany_top_out[1] O
chany_top_out[2] O
chany_top_out[3] O
chany_top_out[4] O
chany_top_out[5] O
chany_top_out[6] O
chany_top_out[7] O
chany_top_out[8] O
prog_clk I
right_bottom_grid_top_width_0_height_0_subtile_0__pin_inpad_0_ I
right_top_grid_bottom_width_0_height_0_subtile_0__pin_O_0_ I
top_left_grid_right_width_0_height_0_subtile_0__pin_inpad_0_ I
top_right_grid_left_width_0_height_0_subtile_0__pin_O_1_ I

*D_NET *1 0.00124853
*CONN
*P ccff_head I
*I *516:A I *D sky130_fd_sc_hd__clkbuf_1
*CAP
1 ccff_head 0.000512101
2 *516:A 0.000512101
3 *516:A ccff_tail 0
4 *516:A chany_top_out[8] 0
5 *516:A *556:A 0.000214074
6 *516:A *557:A 1.02504e-05
*RES
1 ccff_head *516:A 20.8397 
*END

*D_NET *2 0.000978994
*CONN
*P ccff_tail O
*I *539:X O *D sky130_fd_sc_hd__buf_2
*CAP
1 ccff_tail 0.000489497
2 *539:X 0.000489497
3 ccff_tail *526:A 0
4 ccff_tail *528:A 0
5 ccff_tail *530:A 0
6 *516:A ccff_tail 0
*RES
1 *539:X ccff_tail 22.4449 
*END

*D_NET *3 0.00068025
*CONN
*P chanx_right_in[0] I
*I *527:A I *D sky130_fd_sc_hd__buf_1
*CAP
1 chanx_right_in[0] 0.000340125
2 *527:A 0.000340125
3 *527:A *532:A 0
4 *527:A *39:15 0
*RES
1 chanx_right_in[0] *527:A 22.0661 
*END

*D_NET *4 0.00068025
*CONN
*P chanx_right_in[1] I
*I *532:A I *D sky130_fd_sc_hd__buf_1
*CAP
1 chanx_right_in[1] 0.000340125
2 *532:A 0.000340125
3 *532:A *533:A 0
4 *527:A *532:A 0
*RES
1 chanx_right_in[1] *532:A 22.0661 
*END

*D_NET *5 0.00103886
*CONN
*P chanx_right_in[2] I
*I *533:A I *D sky130_fd_sc_hd__clkbuf_1
*CAP
1 chanx_right_in[2] 0.000383114
2 *533:A 0.000383114
3 *533:A *456:A 6.29133e-05
4 *533:A *493:A 0.000202287
5 *533:A *493:TE_B 7.43578e-06
6 *533:A *534:A 0
7 *532:A *533:A 0
*RES
1 chanx_right_in[2] *533:A 23.1024 
*END

*D_NET *6 0.00105058
*CONN
*P chanx_right_in[3] I
*I *534:A I *D sky130_fd_sc_hd__clkbuf_1
*CAP
1 chanx_right_in[3] 0.000383481
2 *534:A 0.000383481
3 *534:A *455:A 0.000187622
4 *534:A *485:A 1.76352e-05
5 *534:A *535:A 0
6 *534:A *128:16 7.83587e-05
7 *533:A *534:A 0
*RES
1 chanx_right_in[3] *534:A 20.5361 
*END

*D_NET *7 0.000696061
*CONN
*P chanx_right_in[4] I
*I *535:A I *D sky130_fd_sc_hd__buf_1
*CAP
1 chanx_right_in[4] 0.0003225
2 *535:A 0.0003225
3 *535:A *482:A 5.10602e-05
4 *535:A *536:A 0
5 *534:A *535:A 0
*RES
1 chanx_right_in[4] *535:A 19.3406 
*END

*D_NET *8 0.00068025
*CONN
*P chanx_right_in[5] I
*I *536:A I *D sky130_fd_sc_hd__buf_1
*CAP
1 chanx_right_in[5] 0.000340125
2 *536:A 0.000340125
3 *536:A *482:A 0
4 *536:A *537:A 0
5 *535:A *536:A 0
*RES
1 chanx_right_in[5] *536:A 22.0661 
*END

*D_NET *9 0.00068025
*CONN
*P chanx_right_in[6] I
*I *537:A I *D sky130_fd_sc_hd__clkbuf_1
*CAP
1 chanx_right_in[6] 0.000340125
2 *537:A 0.000340125
3 *537:A *455:A 0
4 *537:A *482:A 0
5 *537:A *517:A 0
6 *537:A *538:A 0
7 *536:A *537:A 0
*RES
1 chanx_right_in[6] *537:A 22.0661 
*END

*D_NET *10 0.00120346
*CONN
*P chanx_right_in[7] I
*I *538:A I *D sky130_fd_sc_hd__clkbuf_1
*CAP
1 chanx_right_in[7] 0.000529321
2 *538:A 0.000529321
3 *538:A *455:A 1.66754e-05
4 *538:A *517:A 0
5 *538:A *130:12 0.000128146
6 *537:A *538:A 0
*RES
1 chanx_right_in[7] *538:A 20.5051 
*END

*D_NET *11 0.00168016
*CONN
*P chanx_right_in[8] I
*I *517:A I *D sky130_fd_sc_hd__buf_1
*CAP
1 chanx_right_in[8] 0.000467303
2 *517:A 0.000467303
3 *517:A *455:A 0
4 *517:A *531:A 0.000729734
5 *517:A *130:12 1.58163e-05
6 *537:A *517:A 0
7 *538:A *517:A 0
*RES
1 chanx_right_in[8] *517:A 26.8697 
*END

*D_NET *12 0.00107708
*CONN
*P chanx_right_out[0] O
*I *540:X O *D sky130_fd_sc_hd__clkbuf_4
*CAP
1 chanx_right_out[0] 0.000538542
2 *540:X 0.000538542
*RES
1 *540:X chanx_right_out[0] 23.9964 
*END

*D_NET *13 0.000827047
*CONN
*P chanx_right_out[1] O
*I *541:X O *D sky130_fd_sc_hd__clkbuf_4
*CAP
1 chanx_right_out[1] 0.000413524
2 *541:X 0.000413524
*RES
1 *541:X chanx_right_out[1] 21.6571 
*END

*D_NET *14 0.0012498
*CONN
*P chanx_right_out[2] O
*I *542:X O *D sky130_fd_sc_hd__clkbuf_4
*CAP
1 chanx_right_out[2] 0.000575351
2 *542:X 0.000575351
3 chanx_right_out[2] *457:A 4.43915e-05
4 chanx_right_out[2] *542:A 5.47047e-05
*RES
1 *542:X chanx_right_out[2] 25.4071 
*END

*D_NET *15 0.000869915
*CONN
*P chanx_right_out[3] O
*I *543:X O *D sky130_fd_sc_hd__clkbuf_4
*CAP
1 chanx_right_out[3] 0.000434958
2 *543:X 0.000434958
*RES
1 *543:X chanx_right_out[3] 23.6393 
*END

*D_NET *16 0.000976142
*CONN
*P chanx_right_out[4] O
*I *544:X O *D sky130_fd_sc_hd__clkbuf_4
*CAP
1 chanx_right_out[4] 0.000452682
2 *544:X 0.000452682
3 chanx_right_out[4] *457:A 1.74352e-05
4 chanx_right_out[4] *544:A 5.33433e-05
*RES
1 *544:X chanx_right_out[4] 22.05 
*END

*D_NET *17 0.00101948
*CONN
*P chanx_right_out[5] O
*I *545:X O *D sky130_fd_sc_hd__clkbuf_4
*CAP
1 chanx_right_out[5] 0.000451501
2 *545:X 0.000451501
3 chanx_right_out[5] *457:A 1.74352e-05
4 chanx_right_out[5] *545:A 9.90431e-05
*RES
1 *545:X chanx_right_out[5] 22.05 
*END

*D_NET *18 0.00101197
*CONN
*P chanx_right_out[6] O
*I *546:X O *D sky130_fd_sc_hd__clkbuf_4
*CAP
1 chanx_right_out[6] 0.000449838
2 *546:X 0.000449838
3 chanx_right_out[6] *460:A 1.32552e-05
4 chanx_right_out[6] *546:A 9.90431e-05
*RES
1 *546:X chanx_right_out[6] 22.05 
*END

*D_NET *19 0.000869915
*CONN
*P chanx_right_out[7] O
*I *547:X O *D sky130_fd_sc_hd__clkbuf_4
*CAP
1 chanx_right_out[7] 0.000434958
2 *547:X 0.000434958
*RES
1 *547:X chanx_right_out[7] 23.6393 
*END

*D_NET *20 0.00126063
*CONN
*P chanx_right_out[8] O
*I *548:X O *D sky130_fd_sc_hd__clkbuf_4
*CAP
1 chanx_right_out[8] 0.000567534
2 *548:X 0.000567534
3 chanx_right_out[8] chany_top_out[0] 7.03295e-05
4 chanx_right_out[8] *529:A 0
5 chanx_right_out[8] *548:A 5.52302e-05
*RES
1 *548:X chanx_right_out[8] 25.4071 
*END

*D_NET *21 0.00142138
*CONN
*P chany_top_in[0] I
*I *518:A I *D sky130_fd_sc_hd__clkbuf_1
*CAP
1 chany_top_in[0] 0.00071069
2 *518:A 0.00071069
3 *518:A *519:A 0
4 *518:A *99:12 0
*RES
1 chany_top_in[0] *518:A 28.675 
*END

*D_NET *22 0.00108663
*CONN
*P chany_top_in[1] I
*I *519:A I *D sky130_fd_sc_hd__clkbuf_1
*CAP
1 chany_top_in[1] 0.000515369
2 *519:A 0.000515369
3 *519:A *99:12 5.58941e-05
4 *518:A *519:A 0
*RES
1 chany_top_in[1] *519:A 24.0857 
*END

*D_NET *23 0.00104728
*CONN
*P chany_top_in[2] I
*I *520:A I *D sky130_fd_sc_hd__clkbuf_1
*CAP
1 chany_top_in[2] 0.000523642
2 *520:A 0.000523642
*RES
1 chany_top_in[2] *520:A 24.0857 
*END

*D_NET *24 0.00104728
*CONN
*P chany_top_in[3] I
*I *521:A I *D sky130_fd_sc_hd__clkbuf_1
*CAP
1 chany_top_in[3] 0.000523642
2 *521:A 0.000523642
*RES
1 chany_top_in[3] *521:A 24.0857 
*END

*D_NET *25 0.00105254
*CONN
*P chany_top_in[4] I
*I *522:A I *D sky130_fd_sc_hd__clkbuf_1
*CAP
1 chany_top_in[4] 0.00052627
2 *522:A 0.00052627
*RES
1 chany_top_in[4] *522:A 24.0857 
*END

*D_NET *26 0.00107755
*CONN
*P chany_top_in[5] I
*I *523:A I *D sky130_fd_sc_hd__buf_1
*CAP
1 chany_top_in[5] 0.000538776
2 *523:A 0.000538776
3 *523:A *103:16 0
*RES
1 chany_top_in[5] *523:A 24.0857 
*END

*D_NET *27 0.00131689
*CONN
*P chany_top_in[6] I
*I *524:A I *D sky130_fd_sc_hd__buf_1
*CAP
1 chany_top_in[6] 0.000580588
2 *524:A 0.000580588
3 *524:A *480:A 0.000142856
4 *524:A *505:TE_B 1.28585e-05
5 *524:A *103:16 0
6 *524:A *104:12 0
*RES
1 chany_top_in[6] *524:A 25.7464 
*END

*D_NET *28 0.00109333
*CONN
*P chany_top_in[7] I
*I *525:A I *D sky130_fd_sc_hd__buf_1
*CAP
1 chany_top_in[7] 0.000546667
2 *525:A 0.000546667
3 *525:A *528:A 0
4 *525:A *104:12 0
*RES
1 chany_top_in[7] *525:A 24.0857 
*END

*D_NET *29 0.00129588
*CONN
*P chany_top_in[8] I
*I *526:A I *D sky130_fd_sc_hd__clkbuf_1
*CAP
1 chany_top_in[8] 0.000507502
2 *526:A 0.000507502
3 *526:A *452:A 5.83233e-05
4 *526:A *528:A 0
5 *526:A *530:A 0
6 *526:A *539:A 0.000144773
7 *526:A *556:A 7.77751e-05
8 ccff_tail *526:A 0
*RES
1 chany_top_in[8] *526:A 24.7821 
*END

*D_NET *30 0.00162545
*CONN
*P chany_top_out[0] O
*I *549:X O *D sky130_fd_sc_hd__clkbuf_4
*CAP
1 chany_top_out[0] 0.000568908
2 *549:X 0.000568908
3 chany_top_out[0] chany_top_out[1] 0
4 chany_top_out[0] *529:A 0.000194682
5 chany_top_out[0] *548:A 0.00022262
6 chany_top_out[0] *549:A 0
7 chanx_right_out[8] chany_top_out[0] 7.03295e-05
*RES
1 *549:X chany_top_out[0] 26.6771 
*END

*D_NET *31 0.000934216
*CONN
*P chany_top_out[1] O
*I *550:X O *D sky130_fd_sc_hd__clkbuf_4
*CAP
1 chany_top_out[1] 0.000446804
2 *550:X 0.000446804
3 chany_top_out[1] chany_top_out[2] 0
4 chany_top_out[1] *459:A 3.69047e-06
5 chany_top_out[1] *529:A 3.69178e-05
6 chany_top_out[1] *549:A 0
7 chany_top_out[0] chany_top_out[1] 0
*RES
1 *550:X chany_top_out[1] 20.017 
*END

*D_NET *32 0.000772498
*CONN
*P chany_top_out[2] O
*I *551:X O *D sky130_fd_sc_hd__buf_2
*CAP
1 chany_top_out[2] 0.000386249
2 *551:X 0.000386249
3 chany_top_out[2] chany_top_out[3] 0
4 chany_top_out[2] *549:A 0
5 chany_top_out[1] chany_top_out[2] 0
*RES
1 *551:X chany_top_out[2] 19.4092 
*END

*D_NET *33 0.00074424
*CONN
*P chany_top_out[3] O
*I *552:X O *D sky130_fd_sc_hd__buf_2
*CAP
1 chany_top_out[3] 0.00037212
2 *552:X 0.00037212
3 chany_top_out[3] chany_top_out[4] 0
4 chany_top_out[3] *549:A 0
5 chany_top_out[2] chany_top_out[3] 0
*RES
1 *552:X chany_top_out[3] 19.4092 
*END

*D_NET *34 0.000769743
*CONN
*P chany_top_out[4] O
*I *553:X O *D sky130_fd_sc_hd__buf_2
*CAP
1 chany_top_out[4] 0.000357701
2 *553:X 0.000357701
3 chany_top_out[4] chany_top_out[5] 0
4 chany_top_out[4] *483:A 1.50563e-05
5 chany_top_out[4] *553:A 3.92854e-05
6 chany_top_out[3] chany_top_out[4] 0
*RES
1 *553:X chany_top_out[4] 19.4092 
*END

*D_NET *35 0.00134756
*CONN
*P chany_top_out[5] O
*I *554:X O *D sky130_fd_sc_hd__clkbuf_4
*CAP
1 chany_top_out[5] 0.000471283
2 *554:X 0.000471283
3 chany_top_out[5] chany_top_out[6] 0
4 chany_top_out[5] *483:A 0.000309299
5 chany_top_out[5] *498:Z 9.56968e-05
6 chany_top_out[4] chany_top_out[5] 0
*RES
1 *554:X chany_top_out[5] 21.9819 
*END

*D_NET *36 0.000946382
*CONN
*P chany_top_out[6] O
*I *555:X O *D sky130_fd_sc_hd__clkbuf_4
*CAP
1 chany_top_out[6] 0.000436395
2 *555:X 0.000436395
3 chany_top_out[6] chany_top_out[7] 0
4 chany_top_out[6] *483:A 7.35913e-05
5 chany_top_out[5] chany_top_out[6] 0
*RES
1 *555:X chany_top_out[6] 20.3206 
*END

*D_NET *37 0.000748824
*CONN
*P chany_top_out[7] O
*I *556:X O *D sky130_fd_sc_hd__buf_2
*CAP
1 chany_top_out[7] 0.000352929
2 *556:X 0.000352929
3 chany_top_out[7] chany_top_out[8] 0
4 chany_top_out[7] *483:A 4.29654e-05
5 chany_top_out[6] chany_top_out[7] 0
*RES
1 *556:X chany_top_out[7] 19.4092 
*END

*D_NET *38 0.000761885
*CONN
*P chany_top_out[8] O
*I *557:X O *D sky130_fd_sc_hd__buf_2
*CAP
1 chany_top_out[8] 0.000349569
2 *557:X 0.000349569
3 chany_top_out[8] *557:A 6.27457e-05
4 chany_top_out[7] chany_top_out[8] 0
5 *516:A chany_top_out[8] 0
*RES
1 *557:X chany_top_out[8] 19.4092 
*END

*D_NET *39 0.00832455
*CONN
*P prog_clk I
*I *506:A I *D sky130_fd_sc_hd__clkbuf_16
*CAP
1 prog_clk 0.00195093
2 *506:A 0.00125245
3 *39:15 0.00320338
4 *506:A *444:A 0
5 *506:A *468:D 0
6 *506:A *475:A 0
7 *506:A *491:A 0
8 *506:A *544:A 0
9 *506:A *554:A 0.000295137
10 *506:A *101:8 0
11 *506:A *102:10 0
12 *39:15 *460:A 0.00157941
13 *39:15 *99:12 4.32309e-05
14 *527:A *39:15 0
*RES
1 prog_clk *39:15 30.1226 
2 *39:15 *506:A 36.9964 
*END

*D_NET *40 0.00342328
*CONN
*P right_bottom_grid_top_width_0_height_0_subtile_0__pin_inpad_0_ I
*I *528:A I *D sky130_fd_sc_hd__clkbuf_1
*CAP
1 right_bottom_grid_top_width_0_height_0_subtile_0__pin_inpad_0_ 0.00149078
2 *528:A 0.00149078
3 *528:A *452:A 0
4 *528:A *462:A 0.000101545
5 *528:A *465:D 6.51803e-05
6 *528:A *504:TE_B 9.80173e-05
7 *528:A *530:A 9.47456e-05
8 *528:A *539:A 3.08664e-05
9 *528:A *104:12 0
10 *528:A *104:22 0
11 *528:A *105:12 4.15914e-05
12 *528:A *112:27 9.77264e-06
13 ccff_tail *528:A 0
14 *525:A *528:A 0
15 *526:A *528:A 0
*RES
1 right_bottom_grid_top_width_0_height_0_subtile_0__pin_inpad_0_ *528:A 35.848 
*END

*D_NET *41 0.0020602
*CONN
*P right_top_grid_bottom_width_0_height_0_subtile_0__pin_O_0_ I
*I *529:A I *D sky130_fd_sc_hd__clkbuf_1
*CAP
1 right_top_grid_bottom_width_0_height_0_subtile_0__pin_O_0_ 0.000900347
2 *529:A 0.000900347
3 *529:A *459:A 2.79092e-05
4 *529:A *549:A 0
5 chanx_right_out[8] *529:A 0
6 chany_top_out[0] *529:A 0.000194682
7 chany_top_out[1] *529:A 3.69178e-05
*RES
1 right_top_grid_bottom_width_0_height_0_subtile_0__pin_O_0_ *529:A 32.6758 
*END

*D_NET *42 0.00217307
*CONN
*P top_left_grid_right_width_0_height_0_subtile_0__pin_inpad_0_ I
*I *530:A I *D sky130_fd_sc_hd__clkbuf_1
*CAP
1 top_left_grid_right_width_0_height_0_subtile_0__pin_inpad_0_ 0.00103916
2 *530:A 0.00103916
3 *530:A *452:A 0
4 *530:A *462:A 0
5 *530:A *480:A 0
6 ccff_tail *530:A 0
7 *526:A *530:A 0
8 *528:A *530:A 9.47456e-05
*RES
1 top_left_grid_right_width_0_height_0_subtile_0__pin_inpad_0_ *530:A 40.6214 
*END

*D_NET *43 0.00231707
*CONN
*P top_right_grid_left_width_0_height_0_subtile_0__pin_O_1_ I
*I *531:A I *D sky130_fd_sc_hd__buf_1
*CAP
1 top_right_grid_left_width_0_height_0_subtile_0__pin_O_1_ 0.000641
2 *531:A 0.000641
3 *531:A *455:A 0.000186669
4 *531:A *97:22 0.000118662
5 *517:A *531:A 0.000729734
*RES
1 top_right_grid_left_width_0_height_0_subtile_0__pin_O_1_ *531:A 29.8 
*END

*D_NET *46 0.000266876
*CONN
*I *430:A I *D sky130_fd_sc_hd__clkbuf_1
*I *429:X O *D sky130_fd_sc_hd__clkbuf_1
*CAP
1 *430:A 7.26019e-05
2 *429:X 7.26019e-05
3 *430:A *465:D 8.00806e-05
4 *430:A *105:12 4.15914e-05
*RES
1 *429:X *430:A 29.3679 
*END

*D_NET *47 0.00046542
*CONN
*I *432:A I *D sky130_fd_sc_hd__clkbuf_1
*I *431:X O *D sky130_fd_sc_hd__clkbuf_1
*CAP
1 *432:A 0.00019267
2 *431:X 0.00019267
3 *432:A *76:23 8.00806e-05
4 *432:A *103:16 0
*RES
1 *431:X *432:A 31.0286 
*END

*D_NET *48 0.000424505
*CONN
*I *436:A I *D sky130_fd_sc_hd__clkbuf_1
*I *435:X O *D sky130_fd_sc_hd__clkbuf_1
*CAP
1 *436:A 0.000160663
2 *435:X 0.000160663
3 *436:A *434:A 1.92789e-05
4 *436:A *484:A 0
5 *436:A *87:14 8.39e-05
*RES
1 *435:X *436:A 30.6179 
*END

*D_NET *49 0.000175379
*CONN
*I *438:A I *D sky130_fd_sc_hd__clkbuf_1
*I *437:X O *D sky130_fd_sc_hd__clkbuf_1
*CAP
1 *438:A 5.62327e-05
2 *437:X 5.62327e-05
3 *438:A *433:A 6.29133e-05
*RES
1 *437:X *438:A 19.8679 
*END

*D_NET *50 0.000185239
*CONN
*I *442:A I *D sky130_fd_sc_hd__clkbuf_1
*I *441:X O *D sky130_fd_sc_hd__clkbuf_1
*CAP
1 *442:A 4.42762e-05
2 *441:X 4.42762e-05
3 *442:A *441:A 6.29133e-05
4 *442:A *494:A 3.37729e-05
*RES
1 *441:X *442:A 19.8679 
*END

*D_NET *51 0.00150393
*CONN
*I *444:A I *D sky130_fd_sc_hd__clkbuf_1
*I *443:X O *D sky130_fd_sc_hd__clkbuf_1
*CAP
1 *444:A 0.000528167
2 *443:X 0.000528167
3 *444:A *468:CLK 5.33334e-05
4 *444:A *495:TE_B 0.000164393
5 *444:A *101:8 0.000128908
6 *444:A *118:16 0.00010096
7 *506:A *444:A 0
*RES
1 *443:X *444:A 38.5464 
*END

*D_NET *52 0.000435691
*CONN
*I *446:A I *D sky130_fd_sc_hd__clkbuf_1
*I *445:X O *D sky130_fd_sc_hd__clkbuf_1
*CAP
1 *446:A 0.000137101
2 *445:X 0.000137101
3 *446:A *447:A 5.71472e-05
4 *446:A *487:TE_B 2.89016e-05
5 *446:A *489:A 0
6 *446:A *489:TE_B 0
7 *446:A *78:14 1.97695e-05
8 *446:A *125:36 5.5671e-05
*RES
1 *445:X *446:A 21.6357 
*END

*D_NET *53 0.000317046
*CONN
*I *449:A I *D sky130_fd_sc_hd__clkbuf_1
*I *448:X O *D sky130_fd_sc_hd__clkbuf_1
*CAP
1 *449:A 0.000142589
2 *448:X 0.000142589
3 *449:A *488:TE_B 0
4 *449:A *83:12 0
5 *449:A *104:22 0
6 *449:A *125:36 3.18676e-05
*RES
1 *448:X *449:A 30.2071 
*END

*D_NET *54 0.000369043
*CONN
*I *486:TE_B I *D sky130_fd_sc_hd__ebufn_1
*I *450:Y O *D sky130_fd_sc_hd__inv_2
*CAP
1 *486:TE_B 4.07357e-05
2 *450:Y 4.07357e-05
3 *486:TE_B *450:A 4.80961e-05
4 *486:TE_B *486:A 5.49544e-05
5 *486:TE_B *554:A 0.000184521
*RES
1 *450:Y *486:TE_B 20.3679 
*END

*D_NET *55 0.000382617
*CONN
*I *487:TE_B I *D sky130_fd_sc_hd__ebufn_1
*I *447:Y O *D sky130_fd_sc_hd__inv_2
*CAP
1 *487:TE_B 8.99088e-05
2 *447:Y 8.99088e-05
3 *487:TE_B *78:14 4.57445e-05
4 *487:TE_B *105:12 0.000128154
5 *446:A *487:TE_B 2.89016e-05
*RES
1 *447:Y *487:TE_B 29.7786 
*END

*D_NET *56 0.000235656
*CONN
*I *488:TE_B I *D sky130_fd_sc_hd__ebufn_1
*I *449:X O *D sky130_fd_sc_hd__clkbuf_1
*CAP
1 *488:TE_B 0.000100869
2 *449:X 0.000100869
3 *488:TE_B *125:36 3.39168e-05
4 *449:A *488:TE_B 0
*RES
1 *449:X *488:TE_B 20.3857 
*END

*D_NET *57 0.000744846
*CONN
*I *489:TE_B I *D sky130_fd_sc_hd__ebufn_1
*I *446:X O *D sky130_fd_sc_hd__clkbuf_1
*CAP
1 *489:TE_B 0.000281146
2 *446:X 0.000281146
3 *489:TE_B *484:A 0
4 *489:TE_B *487:Z 6.95839e-05
5 *489:TE_B *489:A 5.49489e-05
6 *489:TE_B *87:14 5.80217e-05
7 *446:A *489:TE_B 0
*RES
1 *446:X *489:TE_B 33.1 
*END

*D_NET *58 0.00100879
*CONN
*I *491:TE_B I *D sky130_fd_sc_hd__ebufn_2
*I *444:X O *D sky130_fd_sc_hd__clkbuf_1
*CAP
1 *491:TE_B 0.000351121
2 *444:X 0.000351121
3 *491:TE_B *475:A 9.91086e-05
4 *491:TE_B *507:A 2.59355e-05
5 *491:TE_B *118:16 0.000128204
6 *491:TE_B *125:36 5.33005e-05
*RES
1 *444:X *491:TE_B 32.8857 
*END

*D_NET *59 0.000490811
*CONN
*I *493:TE_B I *D sky130_fd_sc_hd__ebufn_1
*I *442:X O *D sky130_fd_sc_hd__clkbuf_1
*CAP
1 *493:TE_B 0.00020565
2 *442:X 0.00020565
3 *493:TE_B *456:A 1.97695e-05
4 *493:TE_B *493:A 5.23057e-05
5 *493:TE_B *94:12 0
6 *533:A *493:TE_B 7.43578e-06
*RES
1 *442:X *493:TE_B 31.5464 
*END

*D_NET *60 0.000589884
*CONN
*I *494:TE_B I *D sky130_fd_sc_hd__ebufn_1
*I *440:Y O *D sky130_fd_sc_hd__inv_2
*CAP
1 *494:TE_B 0.000109634
2 *440:Y 0.000109634
3 *494:TE_B *441:A 0.000318333
4 *494:TE_B *94:12 5.22831e-05
*RES
1 *440:Y *494:TE_B 21.6 
*END

*D_NET *61 0.000994716
*CONN
*I *495:TE_B I *D sky130_fd_sc_hd__ebufn_2
*I *439:Y O *D sky130_fd_sc_hd__inv_2
*CAP
1 *495:TE_B 0.000216907
2 *439:Y 0.000216907
3 *495:TE_B *101:8 0.000271951
4 *495:TE_B *118:16 0.000124558
5 *444:A *495:TE_B 0.000164393
*RES
1 *439:Y *495:TE_B 33.6714 
*END

*D_NET *62 0.00156263
*CONN
*I *496:TE_B I *D sky130_fd_sc_hd__ebufn_2
*I *438:X O *D sky130_fd_sc_hd__clkbuf_1
*CAP
1 *496:TE_B 0.000539839
2 *438:X 0.000539839
3 *496:TE_B *464:CLK 3.69697e-05
4 *496:TE_B *464:D 0
5 *496:TE_B *496:A 0
6 *496:TE_B *500:TE_B 4.8035e-05
7 *496:TE_B *554:A 5.41609e-05
8 *496:TE_B *72:19 0.000117378
9 *496:TE_B *74:33 0.000226412
*RES
1 *438:X *496:TE_B 36.5464 
*END

*D_NET *63 0.000581222
*CONN
*I *498:TE_B I *D sky130_fd_sc_hd__ebufn_1
*I *436:X O *D sky130_fd_sc_hd__clkbuf_1
*CAP
1 *498:TE_B 0.000290611
2 *436:X 0.000290611
*RES
1 *436:X *498:TE_B 22.8679 
*END

*D_NET *64 0.000508519
*CONN
*I *499:TE_B I *D sky130_fd_sc_hd__ebufn_1
*I *434:Y O *D sky130_fd_sc_hd__inv_2
*CAP
1 *499:TE_B 9.19612e-05
2 *434:Y 9.19612e-05
3 *499:TE_B *499:A 5.49489e-05
4 *499:TE_B *500:A 0.000269648
*RES
1 *434:Y *499:TE_B 21.1893 
*END

*D_NET *65 0.00181027
*CONN
*I *500:TE_B I *D sky130_fd_sc_hd__ebufn_2
*I *433:Y O *D sky130_fd_sc_hd__inv_2
*CAP
1 *500:TE_B 0.000578678
2 *433:Y 0.000578678
3 *500:TE_B *448:A 0.000220681
4 *500:TE_B *464:D 0.000192872
5 *500:TE_B *496:A 9.41642e-05
6 *500:TE_B *74:33 9.71599e-05
7 *496:TE_B *500:TE_B 4.8035e-05
*RES
1 *433:Y *500:TE_B 38.8321 
*END

*D_NET *66 0.000601817
*CONN
*I *501:TE_B I *D sky130_fd_sc_hd__ebufn_1
*I *432:X O *D sky130_fd_sc_hd__clkbuf_1
*CAP
1 *501:TE_B 0.00028068
2 *432:X 0.00028068
3 *501:TE_B *501:A 5.37741e-06
4 *501:TE_B *76:23 0
5 *501:TE_B *104:22 3.50799e-05
*RES
1 *432:X *501:TE_B 31.4214 
*END

*D_NET *67 0.000423286
*CONN
*I *502:TE_B I *D sky130_fd_sc_hd__ebufn_2
*I *430:X O *D sky130_fd_sc_hd__clkbuf_1
*CAP
1 *502:TE_B 0.000150939
2 *430:X 0.000150939
3 *502:TE_B *452:A 0
4 *502:TE_B *484:A 2.22999e-05
5 *502:TE_B *87:14 9.91086e-05
*RES
1 *430:X *502:TE_B 29.8857 
*END

*D_NET *68 0.000549016
*CONN
*I *504:TE_B I *D sky130_fd_sc_hd__ebufn_2
*I *463:Y O *D sky130_fd_sc_hd__inv_2
*CAP
1 *504:TE_B 0.000182196
2 *463:Y 0.000182196
3 *504:TE_B *465:D 8.05559e-05
4 *504:TE_B *112:27 6.05161e-06
5 *528:A *504:TE_B 9.80173e-05
*RES
1 *463:Y *504:TE_B 22.0107 
*END

*D_NET *69 0.000302775
*CONN