*SPEF "ieee 1481-1999"
*DESIGN "sb_0__0_"
*DATE "11:11:11 Fri 11 11, 1111"
*VENDOR "OpenRCX"
*PROGRAM "Parallel Extraction"
*VERSION "1.0"
*DESIGN_FLOW "NAME_SCOPE LOCAL" "PIN_CAP NONE"
*DIVIDER /
*DELIMITER :
*BUS_DELIMITER []
*T_UNIT 1 NS
*C_UNIT 1 PF
*R_UNIT 1 OHM
*L_UNIT 1 HENRY

*NAME_MAP
*1 ccff_head
*2 ccff_tail
*3 chanx_right_in[0]
*4 chanx_right_in[1]
*5 chanx_right_in[2]
*6 chanx_right_in[3]
*7 chanx_right_in[4]
*8 chanx_right_in[5]
*9 chanx_right_in[6]
*10 chanx_right_in[7]
*11 chanx_right_in[8]
*12 chanx_right_out[0]
*13 chanx_right_out[1]
*14 chanx_right_out[2]
*15 chanx_right_out[3]
*16 chanx_right_out[4]
*17 chanx_right_out[5]
*18 chanx_right_out[6]
*19 chanx_right_out[7]
*20 chanx_right_out[8]
*21 chany_top_in[0]
*22 chany_top_in[1]
*23 chany_top_in[2]
*24 chany_top_in[3]
*25 chany_top_in[4]
*26 chany_top_in[5]
*27 chany_top_in[6]
*28 chany_top_in[7]
*29 chany_top_in[8]
*30 chany_top_out[0]
*31 chany_top_out[1]
*32 chany_top_out[2]
*33 chany_top_out[3]
*34 chany_top_out[4]
*35 chany_top_out[5]
*36 chany_top_out[6]
*37 chany_top_out[7]
*38 chany_top_out[8]
*39 prog_clk
*40 right_bottom_grid_top_width_0_height_0_subtile_0__pin_inpad_0_
*41 right_top_grid_bottom_width_0_height_0_subtile_0__pin_O_0_
*42 top_left_grid_right_width_0_height_0_subtile_0__pin_inpad_0_
*43 top_right_grid_left_width_0_height_0_subtile_0__pin_O_1_
*46 _000_
*47 _001_
*48 _002_
*49 _003_
*50 _004_
*51 _005_
*52 _006_
*53 _007_
*54 _008_
*55 _009_
*56 _010_
*57 _011_
*58 _012_
*59 _013_
*60 _014_
*61 _015_
*62 _016_
*63 _017_
*64 _018_
*65 _019_
*66 _020_
*67 _021_
*68 _022_
*69 _023_
*70 clknet_0_prog_clk
*71 clknet_1_0__leaf_prog_clk
*72 clknet_1_1__leaf_prog_clk
*73 mem_right_track_0\.DFF_0_\.D
*74 mem_right_track_0\.DFF_0_\.Q
*75 mem_right_track_0\.DFF_1_\.Q
*76 mem_right_track_2\.DFF_0_\.Q
*77 mem_top_track_0\.DFF_0_\.Q
*78 mem_top_track_0\.DFF_1_\.Q
*79 mem_top_track_2\.DFF_0_\.Q
*80 mux_right_track_0\.INVTX1_0_\.out
*81 mux_right_track_0\.INVTX1_1_\.out
*82 mux_right_track_0\.mux_l1_in_0_\.TGATE_0_\.out
*83 mux_right_track_0\.mux_l2_in_0_\.TGATE_0_\.out
*84 mux_right_track_2\.INVTX1_0_\.out
*85 mux_right_track_2\.INVTX1_1_\.out
*86 mux_right_track_2\.mux_l1_in_0_\.TGATE_0_\.out
*87 mux_right_track_2\.mux_l2_in_0_\.TGATE_0_\.out
*88 mux_top_track_0\.INVTX1_0_\.out
*89 mux_top_track_0\.INVTX1_1_\.out
*90 mux_top_track_0\.mux_l1_in_0_\.TGATE_0_\.out
*91 mux_top_track_0\.mux_l2_in_0_\.TGATE_0_\.out
*92 mux_top_track_2\.INVTX1_0_\.out
*93 mux_top_track_2\.INVTX1_1_\.out
*94 mux_top_track_2\.mux_l1_in_0_\.TGATE_0_\.out
*95 mux_top_track_2\.mux_l2_in_0_\.TGATE_0_\.out
*96 net1
*97 net10
*98 net11
*99 net12
*100 net13
*101 net14
*102 net15
*103 net16
*104 net17
*105 net18
*106 net19
*107 net2
*108 net20
*109 net21
*110 net22
*111 net23
*112 net24
*113 net25
*114 net26
*115 net27
*116 net28
*117 net29
*118 net3
*119 net30
*120 net31
*121 net32
*122 net33
*123 net34
*124 net35
*125 net36
*126 net37
*127 net38
*128 net39
*129 net4
*130 net40
*131 net41
*132 net42
*133 net43
*134 net44
*135 net45
*136 net46
*137 net47
*138 net48
*139 net49
*140 net5
*141 net50
*142 net51
*143 net52
*144 net53
*145 net6
*146 net7
*147 net8
*148 net9
*149 FILLER_0_0_101
*150 FILLER_0_0_111
*151 FILLER_0_0_21
*152 FILLER_0_0_27
*153 FILLER_0_0_35
*154 FILLER_0_0_41
*155 FILLER_0_0_48
*156 FILLER_0_0_63
*157 FILLER_0_0_69
*158 FILLER_0_0_78
*159 FILLER_0_0_83
*160 FILLER_0_0_85
*161 FILLER_0_0_93
*162 FILLER_0_0_97
*163 FILLER_0_10_117
*164 FILLER_0_10_15
*165 FILLER_0_10_27
*166 FILLER_0_10_29
*167 FILLER_0_10_3
*168 FILLER_0_10_41
*169 FILLER_0_10_53
*170 FILLER_0_10_81
*171 FILLER_0_10_94
*172 FILLER_0_11_102
*173 FILLER_0_11_106
*174 FILLER_0_11_113
*175 FILLER_0_11_18
*176 FILLER_0_11_30
*177 FILLER_0_11_42
*178 FILLER_0_11_54
*179 FILLER_0_11_57
*180 FILLER_0_11_6
*181 FILLER_0_11_69
*182 FILLER_0_12_104
*183 FILLER_0_12_114
*184 FILLER_0_12_122
*185 FILLER_0_12_15
*186 FILLER_0_12_27
*187 FILLER_0_12_29
*188 FILLER_0_12_3
*189 FILLER_0_12_41
*190 FILLER_0_12_53
*191 FILLER_0_12_65
*192 FILLER_0_12_81
*193 FILLER_0_13_103
*194 FILLER_0_13_109
*195 FILLER_0_13_113
*196 FILLER_0_13_117
*197 FILLER_0_13_18
*198 FILLER_0_13_30
*199 FILLER_0_13_42
*200 FILLER_0_13_54
*201 FILLER_0_13_57
*202 FILLER_0_13_6
*203 FILLER_0_13_69
*204 FILLER_0_13_81
*205 FILLER_0_13_95
*206 FILLER_0_14_104
*207 FILLER_0_14_116
*208 FILLER_0_14_124
*209 FILLER_0_14_15
*210 FILLER_0_14_27
*211 FILLER_0_14_29
*212 FILLER_0_14_3
*213 FILLER_0_14_41
*214 FILLER_0_14_53
*215 FILLER_0_14_65
*216 FILLER_0_14_77
*217 FILLER_0_14_83
*218 FILLER_0_14_85
*219 FILLER_0_14_92
*220 FILLER_0_15_111
*221 FILLER_0_15_113
*222 FILLER_0_15_21
*223 FILLER_0_15_33
*224 FILLER_0_15_45
*225 FILLER_0_15_53
*226 FILLER_0_15_57
*227 FILLER_0_15_69
*228 FILLER_0_15_81
*229 FILLER_0_15_9
*230 FILLER_0_15_90
*231 FILLER_0_16_106
*232 FILLER_0_16_119
*233 FILLER_0_16_13
*234 FILLER_0_16_20
*235 FILLER_0_16_24
*236 FILLER_0_16_29
*237 FILLER_0_16_3
*238 FILLER_0_16_37
*239 FILLER_0_16_41
*240 FILLER_0_16_49
*241 FILLER_0_16_54
*242 FILLER_0_16_57
*243 FILLER_0_16_63
*244 FILLER_0_16_67
*245 FILLER_0_16_75
*246 FILLER_0_16_80
*247 FILLER_0_16_96
*248 FILLER_0_1_105
*249 FILLER_0_1_111
*250 FILLER_0_1_113
*251 FILLER_0_1_118
*252 FILLER_0_1_15
*253 FILLER_0_1_27
*254 FILLER_0_1_3
*255 FILLER_0_1_39
*256 FILLER_0_1_51
*257 FILLER_0_1_55
*258 FILLER_0_1_57
*259 FILLER_0_1_69
*260 FILLER_0_1_81
*261 FILLER_0_1_93
*262 FILLER_0_2_109
*263 FILLER_0_2_117
*264 FILLER_0_2_121
*265 FILLER_0_2_15
*266 FILLER_0_2_27
*267 FILLER_0_2_29
*268 FILLER_0_2_3
*269 FILLER_0_2_41
*270 FILLER_0_2_53
*271 FILLER_0_2_65
*272 FILLER_0_2_77
*273 FILLER_0_2_83
*274 FILLER_0_2_85
*275 FILLER_0_2_97
*276 FILLER_0_3_105
*277 FILLER_0_3_111
*278 FILLER_0_3_113
*279 FILLER_0_3_18
*280 FILLER_0_3_30
*281 FILLER_0_3_42
*282 FILLER_0_3_54
*283 FILLER_0_3_57
*284 FILLER_0_3_6
*285 FILLER_0_3_69
*286 FILLER_0_3_81
*287 FILLER_0_3_93
*288 FILLER_0_4_109
*289 FILLER_0_4_121
*290 FILLER_0_4_15
*291 FILLER_0_4_27
*292 FILLER_0_4_29
*293 FILLER_0_4_3
*294 FILLER_0_4_41
*295 FILLER_0_4_53
*296 FILLER_0_4_65
*297 FILLER_0_4_77
*298 FILLER_0_4_83
*299 FILLER_0_4_85
*300 FILLER_0_4_97
*301 FILLER_0_5_103
*302 FILLER_0_5_111
*303 FILLER_0_5_113
*304 FILLER_0_5_117
*305 FILLER_0_5_18
*306 FILLER_0_5_30
*307 FILLER_0_5_42
*308 FILLER_0_5_46
*309 FILLER_0_5_57
*310 FILLER_0_5_6
*311 FILLER_0_5_61
*312 FILLER_0_5_73
*313 FILLER_0_5_85
*314 FILLER_0_5_91
*315 FILLER_0_6_10
*316 FILLER_0_6_107
*317 FILLER_0_6_111
*318 FILLER_0_6_116
*319 FILLER_0_6_123
*320 FILLER_0_6_20
*321 FILLER_0_6_29
*322 FILLER_0_6_3
*323 FILLER_0_6_41
*324 FILLER_0_6_74
*325 FILLER_0_6_82
*326 FILLER_0_6_85
*327 FILLER_0_6_89
*328 FILLER_0_7_100
*329 FILLER_0_7_110
*330 FILLER_0_7_21
*331 FILLER_0_7_3
*332 FILLER_0_7_33
*333 FILLER_0_7_51
*334 FILLER_0_7_68
*335 FILLER_0_7_86
*336 FILLER_0_7_90
*337 FILLER_0_8_10
*338 FILLER_0_8_102
*339 FILLER_0_8_108
*340 FILLER_0_8_112
*341 FILLER_0_8_116
*342 FILLER_0_8_22
*343 FILLER_0_8_29
*344 FILLER_0_8_3
*345 FILLER_0_8_41
*346 FILLER_0_8_83
*347 FILLER_0_8_85
*348 FILLER_0_9_10
*349 FILLER_0_9_111
*350 FILLER_0_9_121
*351 FILLER_0_9_22
*352 FILLER_0_9_3
*353 FILLER_0_9_34
*354 FILLER_0_9_46
*355 FILLER_0_9_55
*356 PHY_0
*357 PHY_1
*358 PHY_10
*359 PHY_11
*360 PHY_12
*361 PHY_13
*362 PHY_14
*363 PHY_15
*364 PHY_16
*365 PHY_17
*366 PHY_18
*367 PHY_19
*368 PHY_2
*369 PHY_20
*370 PHY_21
*371 PHY_22
*372 PHY_23
*373 PHY_24
*374 PHY_25
*375 PHY_26
*376 PHY_27
*377 PHY_28
*378 PHY_29
*379 PHY_3
*380 PHY_30
*381 PHY_31
*382 PHY_32
*383 PHY_33
*384 PHY_4
*385 PHY_5
*386 PHY_6
*387 PHY_7
*388 PHY_8
*389 PHY_9
*390 TAP_34
*391 TAP_35
*392 TAP_36
*393 TAP_37
*394 TAP_38
*395 TAP_39
*396 TAP_40
*397 TAP_41
*398 TAP_42
*399 TAP_43
*400 TAP_44
*401 TAP_45
*402 TAP_46
*403 TAP_47
*404 TAP_48
*405 TAP_49
*406 TAP_50
*407 TAP_51
*408 TAP_52
*409 TAP_53
*410 TAP_54
*411 TAP_55
*412 TAP_56
*413 TAP_57
*414 TAP_58
*415 TAP_59
*416 TAP_60
*417 TAP_61
*418 TAP_62
*419 TAP_63
*420 TAP_64
*421 TAP_65
*422 TAP_66
*423 TAP_67
*424 TAP_68
*425 TAP_69
*426 TAP_70
*427 TAP_71
*428 _028_
*429 _029_
*430 _030_
*431 _031_
*432 _032_
*433 _033_
*434 _034_
*435 _035_
*436 _036_
*437 _037_
*438 _038_
*439 _039_
*440 _040_
*441 _041_
*442 _042_
*443 _043_
*444 _044_
*445 _045_
*446 _046_
*447 _047_
*448 _048_
*449 _049_
*450 _050_
*451 _051_
*452 _052_
*453 _053_
*454 _054_
*455 _055_
*456 _056_
*457 _057_
*458 _058_
*459 _059_
*460 _060_
*461 _061_
*462 _062_
*463 _063_
*464 _064_
*465 _065_
*466 _066_
*467 _067_
*468 _068_
*469 _069_
*470 _070_
*471 _071_
*472 _076_
*473 _077_
*474 _078_
*475 _079_
*476 _080_
*477 _081_
*478 _082_
*479 _083_
*480 _084_
*481 _085_
*482 _086_
*483 _087_
*484 _088_
*485 _089_
*486 _090_
*487 _091_
*488 _092_
*489 _093_
*490 _093__43
*491 _094_
*492 _094__44
*493 _095_
*494 _096_
*495 _097_
*496 _098_
*497 _098__45
*498 _099_
*499 _100_
*500 _101_
*501 _102_
*502 _103_
*503 _103__46
*504 _104_
*505 _105_
*506 clkbuf_0_prog_clk
*507 clkbuf_1_0__f_prog_clk
*508 clkbuf_1_1__f_prog_clk
*509 hold1
*510 hold2
*511 hold3
*512 hold4
*513 hold5
*514 hold6
*515 hold7
*516 input1
*517 input10
*518 input11
*519 input12
*520 input13
*521 input14
*522 input15
*523 input16
*524 input17
*525 input18
*526 input19
*527 input2
*528 input20
*529 input21
*530 input22
*531 input23
*532 input3
*533 input4
*534 input5
*535 input6
*536 input7
*537 input8
*538 input9
*539 output24
*540 output25
*541 output26
*542 output27
*543 output28
*544 output29
*545 output30
*546 output31
*547 output32
*548 output33
*549 output34
*550 output35
*551 output36
*552 output37
*553 output38
*554 output39
*555 output40
*556 output41
*557 output42

*PORTS
ccff_head I
ccff_tail O
chanx_right_in[0] I
chanx_right_in[1] I
chanx_right_in[2] I
chanx_right_in[3] I
chanx_right_in[4] I
chanx_right_in[5] I
chanx_right_in[6] I
chanx_right_in[7] I
chanx_right_in[8] I
chanx_right_out[0] O
chanx_right_out[1] O
chanx_right_out[2] O
chanx_right_out[3] O
chanx_right_out[4] O
chanx_right_out[5] O
chanx_right_out[6] O
chanx_right_out[7] O
chanx_right_out[8] O
chany_top_in[0] I
chany_top_in[1] I
chany_top_in[2] I
chany_top_in[3] I
chany_top_in[4] I
chany_top_in[5] I
chany_top_in[6] I
chany_top_in[7] I
chany_top_in[8] I
chany_top_out[0] O
chany_top_out[1] O
chany_top_out[2] O
chany_top_out[3] O
chany_top_out[4] O
chany_top_out[5] O
chany_top_out[6] O
chany_top_out[7] O
chany_top_out[8] O
prog_clk I
right_bottom_grid_top_width_0_height_0_subtile_0__pin_inpad_0_ I
right_top_grid_bottom_width_0_height_0_subtile_0__pin_O_0_ I
top_left_grid_right_width_0_height_0_subtile_0__pin_inpad_0_ I
top_right_grid_left_width_0_height_0_subtile_0__pin_O_1_ I

*D_NET *1 0.00137638
*CONN
*P ccff_head I
*I *516:A I *D sky130_fd_sc_hd__clkbuf_1
*CAP
1 ccff_head 0.000563672
2 *516:A 0
3 *1:11 0.000563672
4 *1:11 ccff_tail 0
5 *1:11 chany_top_out[8] 0
6 *1:11 *131:10 0.000237592
7 *1:11 *132:10 1.14452e-05
*RES
1 ccff_head *1:11 27.2395 
2 *1:11 *516:A 23 
*END

*D_NET *2 0.00106617
*CONN
*P ccff_tail O
*I *539:X O *D sky130_fd_sc_hd__buf_2
*CAP
1 ccff_tail 0.000269374
2 *539:X 0.000263712
3 *2:8 0.000533086
4 ccff_tail *40:15 0
5 *2:8 *29:9 0
6 *2:8 *42:11 0
7 *1:11 ccff_tail 0
*RES
1 *539:X *2:8 43.2511 
2 *2:8 ccff_tail 8.84373 
*END

*D_NET *3 0.000724411
*CONN
*P chanx_right_in[0] I
*I *527:A I *D sky130_fd_sc_hd__buf_1
*CAP
1 chanx_right_in[0] 0.000362206
2 *527:A 0
3 *3:13 0.000362206
4 *3:13 *4:13 0
5 *3:13 *39:13 0
*RES
1 chanx_right_in[0] *3:13 28.6417 
2 *3:13 *527:A 23 
*END

*D_NET *4 0.000724411
*CONN
*P chanx_right_in[1] I
*I *532:A I *D sky130_fd_sc_hd__buf_1
*CAP
1 chanx_right_in[1] 0.000362206
2 *532:A 0
3 *4:13 0.000362206
4 *4:13 *5:15 0
5 *3:13 *4:13 0
*RES
1 chanx_right_in[1] *4:13 28.6417 
2 *4:13 *532:A 23 
*END

*D_NET *5 0.00108788
*CONN
*P chanx_right_in[2] I
*I *533:A I *D sky130_fd_sc_hd__clkbuf_1
*CAP
1 chanx_right_in[2] 0.000408441
2 *533:A 0
3 *5:15 0.000408441
4 *5:15 *456:A 6.26126e-05
5 *5:15 *493:TE_B 7.53384e-06
6 *5:15 *534:A 0
7 *5:15 *93:8 0.000200852
8 *4:13 *5:15 0
*RES
1 chanx_right_in[2] *5:15 29.8462 
2 *5:15 *533:A 23 
*END

*D_NET *6 0.00114667
*CONN
*P chanx_right_in[3] I
*I *534:A I *D sky130_fd_sc_hd__clkbuf_1
*CAP
1 chanx_right_in[3] 0.000417129
2 *534:A 0.000417129
3 *534:A *535:A 0
4 *534:A *111:12 0.000207805
5 *534:A *128:10 8.62783e-05
6 *534:A *140:8 1.83235e-05
7 *5:15 *534:A 0
*RES
1 chanx_right_in[3] *534:A 49.8874 
*END

*D_NET *7 0.000734216
*CONN
*P chanx_right_in[4] I
*I *535:A I *D sky130_fd_sc_hd__buf_1
*CAP
1 chanx_right_in[4] 0.000340502
2 *535:A 0.000340502
3 *535:A *8:13 0
4 *535:A *147:14 5.32119e-05
5 *534:A *535:A 0
*RES
1 chanx_right_in[4] *535:A 48.5012 
*END

*D_NET *8 0.000724411
*CONN
*P chanx_right_in[5] I
*I *536:A I *D sky130_fd_sc_hd__buf_1
*CAP
1 chanx_right_in[5] 0.000362206
2 *536:A 0
3 *8:13 0.000362206
4 *8:13 *9:13 0
5 *8:13 *147:14 0
6 *535:A *8:13 0
*RES
1 chanx_right_in[5] *8:13 28.6417 
2 *8:13 *536:A 23 
*END

*D_NET *9 0.000724411
*CONN
*P chanx_right_in[6] I
*I *537:A I *D sky130_fd_sc_hd__clkbuf_1
*CAP
1 chanx_right_in[6] 0.000362206
2 *537:A 0
3 *9:13 0.000362206
4 *9:13 *538:A 0
5 *9:13 *11:15 0
6 *9:13 *111:12 0
7 *9:13 *147:14 0
8 *8:13 *9:13 0
*RES
1 chanx_right_in[6] *9:13 28.6417 
2 *9:13 *537:A 23 
*END

*D_NET *10 0.00128561
*CONN
*P chanx_right_in[7] I
*I *538:A I *D sky130_fd_sc_hd__clkbuf_1
*CAP
1 chanx_right_in[7] 0.000563223
2 *538:A 0.000563223
3 *538:A *11:15 0
4 *538:A *111:12 1.72928e-05
5 *538:A *130:10 0.000141869
6 *9:13 *538:A 0
*RES
1 chanx_right_in[7] *538:A 49.8601 
*END

*D_NET *11 0.00180903
*CONN
*P chanx_right_in[8] I
*I *517:A I *D sky130_fd_sc_hd__buf_1
*CAP
1 chanx_right_in[8] 0.00051134
2 *517:A 0
3 *11:15 0.00051134
4 *11:15 *43:17 0.000770443
5 *11:15 *111:12 0
6 *11:15 *130:10 1.59094e-05
7 *538:A *11:15 0
8 *9:13 *11:15 0
*RES
1 chanx_right_in[8] *11:15 34.2139 
2 *11:15 *517:A 23 
*END

*D_NET *12 0.00113171
*CONN
*P chanx_right_out[0] O
*I *540:X O *D sky130_fd_sc_hd__clkbuf_4
*CAP
1 chanx_right_out[0] 0.000565855
2 *540:X 0.000565855
*RES
1 *540:X chanx_right_out[0] 49.8279 
*END

*D_NET *13 0.000883875
*CONN
*P chanx_right_out[1] O
*I *541:X O *D sky130_fd_sc_hd__clkbuf_4
*CAP
1 chanx_right_out[1] 0.000441937
2 *541:X 0.000441937
*RES
1 *541:X chanx_right_out[1] 47.1143 
*END

*D_NET *14 0.00133275
*CONN
*P chanx_right_out[2] O
*I *542:X O *D sky130_fd_sc_hd__clkbuf_4
*CAP
1 chanx_right_out[2] 5.33566e-05
2 *542:X 0.000563256
3 *14:12 0.000616612
4 *14:12 *542:A 5.53064e-05
5 *14:12 *83:20 4.42181e-05
*RES
1 *542:X *14:12 49.2168 
2 *14:12 chanx_right_out[2] 2.2475 
*END

*D_NET *15 0.00091896
*CONN
*P chanx_right_out[3] O
*I *543:X O *D sky130_fd_sc_hd__clkbuf_4
*CAP
1 chanx_right_out[3] 0.00045948
2 *543:X 0.00045948
*RES
1 *543:X chanx_right_out[3] 49.4136 
*END

*D_NET *16 0.00103245
*CONN
*P chanx_right_out[4] O
*I *544:X O *D sky130_fd_sc_hd__clkbuf_4
*CAP
1 chanx_right_out[4] 0.000480329
2 *544:X 0.000480329
3 chanx_right_out[4] *544:A 5.41385e-05
4 chanx_right_out[4] *83:20 1.76557e-05
*RES
1 *544:X chanx_right_out[4] 47.57 
*END

*D_NET *17 0.00107199
*CONN
*P chanx_right_out[5] O
*I *545:X O *D sky130_fd_sc_hd__clkbuf_4
*CAP
1 chanx_right_out[5] 0.000477926
2 *545:X 0.000477926
3 chanx_right_out[5] *545:A 9.84851e-05
4 chanx_right_out[5] *83:20 1.76557e-05
*RES
1 *545:X chanx_right_out[5] 47.57 
*END

*D_NET *18 0.00106531
*CONN
*P chanx_right_out[6] O
*I *546:X O *D sky130_fd_sc_hd__clkbuf_4
*CAP
1 chanx_right_out[6] 0.000476767
2 *546:X 0.000476767
3 chanx_right_out[6] *546:A 9.84851e-05
4 chanx_right_out[6] *87:18 1.32939e-05
*RES
1 *546:X chanx_right_out[6] 47.57 
*END

*D_NET *19 0.00091896
*CONN
*P chanx_right_out[7] O
*I *547:X O *D sky130_fd_sc_hd__clkbuf_4
*CAP
1 chanx_right_out[7] 0.00045948
2 *547:X 0.00045948
*RES
1 *547:X chanx_right_out[7] 49.4136 
*END

*D_NET *20 0.00133123
*CONN
*P chanx_right_out[8] O
*I *548:X O *D sky130_fd_sc_hd__clkbuf_4
*CAP
1 chanx_right_out[8] 5.33566e-05
2 *548:X 0.00054908
3 *20:12 0.000602436
4 *20:12 *30:10 7.1349e-05
5 *20:12 *41:15 0
6 *20:12 *122:10 5.50106e-05
*RES
1 *548:X *20:12 49.2168 
2 *20:12 chanx_right_out[8] 2.2475 
*END

*D_NET *21 0.00150216
*CONN
*P chany_top_in[0] I
*I *518:A I *D sky130_fd_sc_hd__clkbuf_1
*CAP
1 chany_top_in[0] 0.00075108
2 *518:A 0
3 *21:19 0.00075108
4 *21:19 *519:A 0
5 *21:19 *99:10 0
*RES
1 chany_top_in[0] *21:19 32.255 
2 *21:19 *518:A 23 
*END

*D_NET *22 0.001165
*CONN
*P chany_top_in[1] I
*I *519:A I *D sky130_fd_sc_hd__clkbuf_1
*CAP
1 chany_top_in[1] 0.000551677
2 *519:A 0.000551677
3 *519:A *99:10 6.16439e-05
4 *21:19 *519:A 0
*RES
1 chany_top_in[1] *519:A 49.9314 
*END

*D_NET *23 0.00111491
*CONN
*P chany_top_in[2] I
*I *520:A I *D sky130_fd_sc_hd__clkbuf_1
*CAP
1 chany_top_in[2] 0.000557456
2 *520:A 0.000557456
*RES
1 chany_top_in[2] *520:A 49.9314 
*END

*D_NET *24 0.00111491
*CONN
*P chany_top_in[3] I
*I *521:A I *D sky130_fd_sc_hd__clkbuf_1
*CAP
1 chany_top_in[3] 0.000557456
2 *521:A 0.000557456
*RES
1 chany_top_in[3] *521:A 49.9314 
*END

*D_NET *25 0.00111829
*CONN
*P chany_top_in[4] I
*I *522:A I *D sky130_fd_sc_hd__clkbuf_1
*CAP
1 chany_top_in[4] 0.000559146
2 *522:A 0.000559146
*RES
1 chany_top_in[4] *522:A 49.9314 
*END

*D_NET *26 0.00115084
*CONN
*P chany_top_in[5] I
*I *523:A I *D sky130_fd_sc_hd__buf_1
*CAP
1 chany_top_in[5] 0.000575419
2 *523:A 0.000575419
3 *523:A *103:14 0
*RES
1 chany_top_in[5] *523:A 49.9314 
*END

*D_NET *27 0.00139362
*CONN
*P chany_top_in[6] I
*I *524:A I *D sky130_fd_sc_hd__buf_1
*CAP
1 chany_top_in[6] 0.000619101
2 *524:A 0
3 *27:13 0.000619101
4 *27:13 *69:10 1.34542e-05
5 *27:13 *97:34 0.00014196
6 *27:13 *103:14 0
7 *27:13 *104:12 0
*RES
1 chany_top_in[6] *27:13 28.8579 
2 *27:13 *524:A 23 
*END

*D_NET *28 0.00118692
*CONN
*P chany_top_in[7] I
*I *525:A I *D sky130_fd_sc_hd__buf_1
*CAP
1 chany_top_in[7] 0.000593462
2 *525:A 0.000593462
3 *525:A *40:15 0
4 *525:A *104:12 0
*RES
1 chany_top_in[7] *525:A 49.9314 
*END

*D_NET *29 0.00137549
*CONN
*P chany_top_in[8] I
*I *526:A I *D sky130_fd_sc_hd__clkbuf_1
*CAP
1 chany_top_in[8] 0.000544071
2 *526:A 0
3 *29:9 0.000544071
4 *29:9 *530:A 0
5 *29:9 *40:15 0
6 *29:9 *110:16 6.48049e-05
7 *29:9 *112:46 0.000143655
8 *29:9 *131:10 7.88926e-05
9 *2:8 *29:9 0
*RES
1 chany_top_in[8] *29:9 27.7393 
2 *29:9 *526:A 23 
*END

*D_NET *30 0.00174382
*CONN
*P chany_top_out[0] O
*I *549:X O *D sky130_fd_sc_hd__clkbuf_4
*CAP
1 chany_top_out[0] 0.000234609
2 *549:X 0.000388049
3 *30:10 0.000622658
4 chany_top_out[0] chany_top_out[1] 0
5 chany_top_out[0] *41:15 0
6 *30:10 *41:15 0.000203243
7 *30:10 *122:10 0.000223909
8 *30:10 *123:14 0
9 *20:12 *30:10 7.1349e-05
*RES
1 *549:X *30:10 48.1604 
2 *30:10 chany_top_out[0] 8.84373 
*END

*D_NET *31 0.00104416
*CONN
*P chany_top_out[1] O
*I *550:X O *D sky130_fd_sc_hd__clkbuf_4
*CAP
1 chany_top_out[1] 0.000501974
2 *550:X 0.000501974
3 chany_top_out[1] chany_top_out[2] 0
4 chany_top_out[1] *459:A 3.7122e-06
5 chany_top_out[1] *41:15 3.65014e-05
6 chany_top_out[1] *123:14 0
7 chany_top_out[0] chany_top_out[1] 0
*RES
1 *550:X chany_top_out[1] 49.2807 
*END

*D_NET *32 0.000868858
*CONN
*P chany_top_out[2] O
*I *551:X O *D sky130_fd_sc_hd__buf_2
*CAP
1 chany_top_out[2] 0.000434429
2 *551:X 0.000434429
3 chany_top_out[2] chany_top_out[3] 0
4 chany_top_out[2] *123:14 0
5 chany_top_out[1] chany_top_out[2] 0
*RES
1 *551:X chany_top_out[2] 48.5734 
*END

*D_NET *33 0.000839195
*CONN
*P chany_top_out[3] O
*I *552:X O *D sky130_fd_sc_hd__buf_2
*CAP
1 chany_top_out[3] 0.000419597
2 *552:X 0.000419597
3 chany_top_out[3] chany_top_out[4] 0
4 chany_top_out[3] *123:14 0
5 chany_top_out[2] chany_top_out[3] 0
*RES
1 *552:X chany_top_out[3] 48.5734 
*END

*D_NET *34 0.000872325
*CONN
*P chany_top_out[4] O
*I *553:X O *D sky130_fd_sc_hd__buf_2
*CAP
1 chany_top_out[4] 0.000408051
2 *553:X 0.000408051
3 chany_top_out[4] chany_top_out[5] 0
4 chany_top_out[4] *127:10 4.08641e-05
5 chany_top_out[4] *146:18 1.53581e-05
6 chany_top_out[3] chany_top_out[4] 0
*RES
1 *553:X chany_top_out[4] 48.5734 
*END

*D_NET *35 0.00151449
*CONN
*P chany_top_out[5] O
*I *554:X O *D sky130_fd_sc_hd__clkbuf_4
*CAP
1 chany_top_out[5] 0.000393426
2 *554:X 0.00014232
3 *35:8 0.000535747
4 chany_top_out[5] chany_top_out[6] 0
5 *35:8 *82:21 9.98891e-05
6 *35:8 *146:18 0.000343112
7 chany_top_out[4] chany_top_out[5] 0
*RES
1 *554:X *35:8 42.5468 
2 *35:8 chany_top_out[5] 9.01547 
*END

*D_NET *36 0.00106545
*CONN
*P chany_top_out[6] O
*I *555:X O *D sky130_fd_sc_hd__clkbuf_4
*CAP
1 chany_top_out[6] 0.000494357
2 *555:X 0.000494357
3 chany_top_out[6] chany_top_out[7] 0
4 chany_top_out[6] *146:18 7.67334e-05
5 chany_top_out[5] chany_top_out[6] 0
*RES
1 *555:X chany_top_out[6] 49.6328 
*END

*D_NET *37 0.000844748
*CONN
*P chany_top_out[7] O
*I *556:X O *D sky130_fd_sc_hd__buf_2
*CAP
1 chany_top_out[7] 0.000400745
2 *556:X 0.000400745
3 chany_top_out[7] chany_top_out[8] 0
4 chany_top_out[7] *146:18 4.32584e-05
5 chany_top_out[6] chany_top_out[7] 0
*RES
1 *556:X chany_top_out[7] 48.5734 
*END

*D_NET *38 0.000859345
*CONN
*P chany_top_out[8] O
*I *557:X O *D sky130_fd_sc_hd__buf_2
*CAP
1 chany_top_out[8] 0.000396935
2 *557:X 0.000396935
3 chany_top_out[8] *132:10 6.54744e-05
4 chany_top_out[7] chany_top_out[8] 0
5 *1:11 chany_top_out[8] 0
*RES
1 *557:X chany_top_out[8] 48.5734 
*END

*D_NET *39 0.00878522
*CONN
*P prog_clk I
*I *506:A I *D sky130_fd_sc_hd__clkbuf_16
*CAP
1 prog_clk 0.00201587
2 *506:A 0
3 *39:17 0.00140002
4 *39:13 0.0034159
5 *39:13 *87:18 0.00157908
6 *39:13 *99:10 4.73716e-05
7 *39:17 *51:10 0
8 *39:17 *101:8 0
9 *39:17 *102:16 0
10 *39:17 *117:8 0
11 *39:17 *128:20 0.000326983
12 *39:17 *134:10 0
13 *39:17 *143:8 0
14 *3:13 *39:13 0
*RES
1 prog_clk *39:13 43.6166 
2 *39:13 *39:17 41.9079 
3 *39:17 *506:A 38 
*END

*D_NET *40 0.00364957
*CONN
*P right_bottom_grid_top_width_0_height_0_subtile_0__pin_inpad_0_ I
*I *528:A I *D sky130_fd_sc_hd__clkbuf_1
*CAP
1 right_bottom_grid_top_width_0_height_0_subtile_0__pin_inpad_0_ 0.00159619
2 *528:A 0
3 *40:15 0.00159619
4 *40:15 *504:TE_B 9.75779e-05
5 *40:15 *530:A 9.88678e-05
6 *40:15 *96:12 6.3552e-05
7 *40:15 *104:12 0
8 *40:15 *104:18 0
9 *40:15 *105:8 4.334e-05
10 *40:15 *108:10 0.000111852
11 *40:15 *110:16 0
12 *40:15 *112:27 9.78729e-06
13 *40:15 *112:46 3.22051e-05
14 ccff_tail *40:15 0
15 *525:A *40:15 0
16 *29:9 *40:15 0
*RES
1 right_bottom_grid_top_width_0_height_0_subtile_0__pin_inpad_0_ *40:15 44.6787 
2 *40:15 *528:A 23 
*END

*D_NET *41 0.00222706
*CONN
*P right_top_grid_bottom_width_0_height_0_subtile_0__pin_O_0_ I
*I *529:A I *D sky130_fd_sc_hd__clkbuf_1
*CAP
1 right_top_grid_bottom_width_0_height_0_subtile_0__pin_O_0_ 0.000979708
2 *529:A 0
3 *41:15 0.000979708
4 *41:15 *109:8 2.79004e-05
5 *41:15 *123:14 0
6 chany_top_out[0] *41:15 0
7 chany_top_out[1] *41:15 3.65014e-05
8 *20:12 *41:15 0
9 *30:10 *41:15 0.000203243
*RES
1 right_top_grid_bottom_width_0_height_0_subtile_0__pin_O_0_ *41:15 40.9581 
2 *41:15 *529:A 23 
*END

*D_NET *42 0.00235359
*CONN
*P top_left_grid_right_width_0_height_0_subtile_0__pin_inpad_0_ I
*I *530:A I *D sky130_fd_sc_hd__clkbuf_1
*CAP
1 top_left_grid_right_width_0_height_0_subtile_0__pin_inpad_0_ 0.000994735
2 *530:A 0.000132626
3 *42:11 0.00112736
4 *530:A *462:A 0
5 *530:A *97:34 0
6 *530:A *110:16 0
7 *2:8 *42:11 0
8 *29:9 *530:A 0
9 *40:15 *530:A 9.88678e-05
*RES
1 top_left_grid_right_width_0_height_0_subtile_0__pin_inpad_0_ *42:11 47.8971 
2 *42:11 *530:A 40.7757 
*END

*D_NET *43 0.00244221
*CONN
*P top_right_grid_left_width_0_height_0_subtile_0__pin_O_1_ I
*I *531:A I *D sky130_fd_sc_hd__buf_1
*CAP
1 top_right_grid_left_width_0_height_0_subtile_0__pin_O_1_ 0.000680566
2 *531:A 0
3 *43:17 0.000680566
4 *43:17 *97:14 0.000125202
5 *43:17 *111:8 0.000185434
6 *43:17 *111:12 0
7 *11:15 *43:17 0.000770443
*RES
1 top_right_grid_left_width_0_height_0_subtile_0__pin_O_1_ *43:17 33.56 
2 *43:17 *531:A 23 
*END

*D_NET *46 0.000304649
*CONN
*I *430:A I *D sky130_fd_sc_hd__clkbuf_1
*I *429:X O *D sky130_fd_sc_hd__clkbuf_1
*CAP
1 *430:A 4.00533e-05
2 *429:X 4.63418e-05
3 *46:8 8.63951e-05
4 *46:8 *96:18 8.85189e-05
5 *46:8 *105:8 4.334e-05
*RES
1 *429:X *46:8 39.2014 
2 *46:8 *430:A 38.8493 
*END

*D_NET *47 0.000522003
*CONN
*I *432:A I *D sky130_fd_sc_hd__clkbuf_1
*I *431:X O *D sky130_fd_sc_hd__clkbuf_1
*CAP
1 *432:A 0.000155263
2 *431:X 6.14794e-05
3 *47:8 0.000216742
4 *47:8 *76:23 8.85189e-05
5 *47:8 *103:14 0
*RES
1 *431:X *47:8 39.2014 
2 *47:8 *432:A 40.7757 
*END

*D_NET *48 0.000469925
*CONN
*I *436:A I *D sky130_fd_sc_hd__clkbuf_1
*I *435:X O *D sky130_fd_sc_hd__clkbuf_1
*CAP
1 *436:A 3.8084e-05
2 *435:X 0.00014334
3 *48:10 0.000181424
4 *48:10 *434:A 1.94693e-05
5 *48:10 *87:14 8.76088e-05
6 *48:10 *145:18 0
*RES
1 *435:X *48:10 40.8793 
2 *48:10 *436:A 38.6214 
*END

*D_NET *49 0.000180811
*CONN
*I *438:A I *D sky130_fd_sc_hd__clkbuf_1
*I *437:X O *D sky130_fd_sc_hd__clkbuf_1
*CAP
1 *438:A 5.90994e-05
2 *437:X 5.90994e-05
3 *438:A *433:A 6.26126e-05
*RES
1 *437:X *438:A 47.4707 
*END

*D_NET *50 0.000191243
*CONN
*I *442:A I *D sky130_fd_sc_hd__clkbuf_1
*I *441:X O *D sky130_fd_sc_hd__clkbuf_1
*CAP
1 *442:A 4.70171e-05
2 *441:X 4.70171e-05
3 *442:A *441:A 6.26126e-05
4 *442:A *494:A 3.45967e-05
*RES
1 *441:X *442:A 47.4707 
*END

*D_NET *51 0.00166923
*CONN
*I *444:A I *D sky130_fd_sc_hd__clkbuf_1
*I *443:X O *D sky130_fd_sc_hd__clkbuf_1
*CAP
1 *444:A 7.02254e-05
2 *443:X 0.000537343
3 *51:10 0.000607568
4 *444:A *451:A 0.00010018
5 *444:A *495:TE_B 2.02517e-05
6 *51:10 *468:CLK 5.41288e-05
7 *51:10 *61:8 0.000150878
8 *51:10 *101:8 0.000128651
9 *39:17 *51:10 0
*RES
1 *443:X *51:10 48.7507 
2 *51:10 *444:A 39.9471 
*END

*D_NET *52 0.000477227
*CONN
*I *446:A I *D sky130_fd_sc_hd__clkbuf_1
*I *445:X O *D sky130_fd_sc_hd__clkbuf_1
*CAP
1 *446:A 0.000157368
2 *445:X 0.000157368
3 *446:A *447:A 5.67058e-05
4 *446:A *55:10 2.93747e-05
5 *446:A *57:12 0
6 *446:A *78:14 2.02517e-05
7 *446:A *125:28 5.61579e-05
8 *446:A *133:12 0
*RES
1 *445:X *446:A 49.5214 
*END

*D_NET *53 0.000350936
*CONN
*I *449:A I *D sky130_fd_sc_hd__clkbuf_1
*I *448:X O *D sky130_fd_sc_hd__clkbuf_1
*CAP
1 *449:A 7.75335e-05
2 *448:X 8.17907e-05
3 *53:8 0.000159324
4 *449:A *488:TE_B 0
5 *449:A *125:28 3.22879e-05
6 *53:8 *83:12 0
7 *53:8 *104:18 0
*RES
1 *448:X *53:8 39.2014 
2 *53:8 *449:A 39.8229 
*END

*D_NET *54 0.000385639
*CONN
*I *486:TE_B I *D sky130_fd_sc_hd__ebufn_1
*I *450:Y O *D sky130_fd_sc_hd__inv_2
*CAP
1 *486:TE_B 4.67452e-05
2 *450:Y 4.67452e-05
3 *486:TE_B *450:A 4.94447e-05
4 *486:TE_B *486:A 5.56356e-05
5 *486:TE_B *128:24 0.000187069
*RES
1 *450:Y *486:TE_B 48.0507 
*END

*D_NET *55 0.000432139
*CONN
*I *487:TE_B I *D sky130_fd_sc_hd__ebufn_1
*I *447:Y O *D sky130_fd_sc_hd__inv_2
*CAP
1 *487:TE_B 0
2 *447:Y 0.000107496
3 *55:10 0.000107496
4 *55:10 *78:14 4.58924e-05
5 *55:10 *105:8 0.000141879
6 *446:A *55:10 2.93747e-05
*RES
1 *447:Y *55:10 40.5271 
2 *55:10 *487:TE_B 38 
*END

*D_NET *56 0.000252389
*CONN
*I *488:TE_B I *D sky130_fd_sc_hd__ebufn_1
*I *449:X O *D sky130_fd_sc_hd__clkbuf_1
*CAP
1 *488:TE_B 0.000109719
2 *449:X 0.000109719
3 *488:TE_B *125:28 3.29523e-05
4 *449:A *488:TE_B 0
*RES
1 *449:X *488:TE_B 48.0714 
*END

*D_NET *57 0.000822703
*CONN
*I *489:TE_B I *D sky130_fd_sc_hd__ebufn_1
*I *446:X O *D sky130_fd_sc_hd__clkbuf_1
*CAP
1 *489:TE_B 0.000148415
2 *446:X 0.00017106
3 *57:12 0.000319475
4 *489:TE_B *487:Z 6.95086e-05
5 *489:TE_B *489:A 5.56279e-05
6 *57:12 *87:14 5.86165e-05
7 *57:12 *133:12 0
8 *57:12 *145:18 0
9 *446:A *57:12 0
*RES
1 *446:X *57:12 41.3764 
2 *57:12 *489:TE_B 41.0036 
*END

*D_NET *58 0.00110921
*CONN
*I *491:TE_B I *D sky130_fd_sc_hd__ebufn_2
*I *444:X O *D sky130_fd_sc_hd__clkbuf_1
*CAP
1 *491:TE_B 2.77218e-05
2 *444:X 0.000368294
3 *58:10 0.000396016
4 *491:TE_B *70:18 2.64616e-05
5 *491:TE_B *125:28 5.3304e-05
6 *58:10 *451:A 0.000128735
7 *58:10 *102:16 0.000108681
*RES
1 *444:X *58:10 43.51 
2 *58:10 *491:TE_B 38.6214 
*END

*D_NET *59 0.000533043
*CONN
*I *493:TE_B I *D sky130_fd_sc_hd__ebufn_1
*I *442:X O *D sky130_fd_sc_hd__clkbuf_1
*CAP
1 *493:TE_B 0.000144354
2 *442:X 8.17907e-05
3 *59:8 0.000226145
4 *493:TE_B *456:A 2.02517e-05
5 *493:TE_B *93:8 5.29672e-05
6 *59:8 *94:10 0
7 *5:15 *493:TE_B 7.53384e-06
*RES
1 *442:X *59:8 39.2014 
2 *59:8 *493:TE_B 41.3764 
*END

*D_NET *60 0.000627381
*CONN
*I *494:TE_B I *D sky130_fd_sc_hd__ebufn_1
*I *440:Y O *D sky130_fd_sc_hd__inv_2
*CAP
1 *494:TE_B 0.000126305
2 *440:Y 0.000126305
3 *494:TE_B *441:A 0.000321384
4 *494:TE_B *94:10 5.33866e-05
*RES
1 *440:Y *494:TE_B 49.48 
*END

*D_NET *61 0.00110745
*CONN
*I *495:TE_B I *D sky130_fd_sc_hd__ebufn_2
*I *439:Y O *D sky130_fd_sc_hd__inv_2
*CAP
1 *495:TE_B 0.000138372
2 *439:Y 0.000115679
3 *61:8 0.000254052
4 *495:TE_B *451:A 0.000126806
5 *61:8 *101:8 0.000301409
6 *444:A *495:TE_B 2.02517e-05
7 *51:10 *61:8 0.000150878
*RES
1 *439:Y *61:8 42.0186 
2 *61:8 *495:TE_B 41.0243 
*END

*D_NET *62 0.00170453
*CONN
*I *496:TE_B I *D sky130_fd_sc_hd__ebufn_2
*I *438:X O *D sky130_fd_sc_hd__clkbuf_1
*CAP
1 *496:TE_B 7.9365e-05
2 *438:X 0.000526717
3 *62:10 0.000606082
4 *496:TE_B *128:24 5.47927e-05
5 *62:10 *464:CLK 3.83778e-05
6 *62:10 *65:12 4.79612e-05
7 *62:10 *72:19 0.000122397
8 *62:10 *74:31 0.00022884
9 *62:10 *135:10 0
10 *62:10 *142:10 0
*RES
1 *438:X *62:10 46.8036 
2 *62:10 *496:TE_B 39.5743 
*END

*D_NET *63 0.00063695
*CONN
*I *498:TE_B I *D sky130_fd_sc_hd__ebufn_1
*I *436:X O *D sky130_fd_sc_hd__clkbuf_1
*CAP
1 *498:TE_B 0
2 *436:X 0.000318475
3 *63:10 0.000318475
*RES
1 *436:X *63:10 27.9507 
2 *63:10 *498:TE_B 23 
*END

*D_NET *64 0.000537157
*CONN
*I *499:TE_B I *D sky130_fd_sc_hd__ebufn_1
*I *434:Y O *D sky130_fd_sc_hd__inv_2
*CAP
1 *499:TE_B 0.000103964
2 *434:Y 0.000103964
3 *499:TE_B *499:A 5.56279e-05
4 *499:TE_B *500:A 0.000273601
*RES
1 *434:Y *499:TE_B 49.0036 
*END

*D_NET *65 0.00198107
*CONN
*I *500:TE_B I *D sky130_fd_sc_hd__ebufn_2
*I *433:Y O *D sky130_fd_sc_hd__inv_2
*CAP
1 *500:TE_B 4.89752e-05
2 *433:Y 0.000602506
3 *65:12 0.000651481