*SPEF "ieee 1481-1999"
*DESIGN "sb_0__10_"
*DATE "11:11:11 Fri 11 11, 1111"
*VENDOR "OpenRCX"
*PROGRAM "Parallel Extraction"
*VERSION "1.0"
*DESIGN_FLOW "NAME_SCOPE LOCAL" "PIN_CAP NONE"
*DIVIDER /
*DELIMITER :
*BUS_DELIMITER []
*T_UNIT 1 NS
*C_UNIT 1 PF
*R_UNIT 1 OHM
*L_UNIT 1 HENRY

*NAME_MAP
*1 bottom_left_grid_right_width_0_height_0_subtile_0__pin_inpad_0_
*2 bottom_right_grid_left_width_0_height_0_subtile_0__pin_O_1_
*3 ccff_head
*4 ccff_tail
*5 chanx_right_in[0]
*6 chanx_right_in[1]
*7 chanx_right_in[2]
*8 chanx_right_in[3]
*9 chanx_right_in[4]
*10 chanx_right_in[5]
*11 chanx_right_in[6]
*12 chanx_right_in[7]
*13 chanx_right_in[8]
*14 chanx_right_out[0]
*15 chanx_right_out[1]
*16 chanx_right_out[2]
*17 chanx_right_out[3]
*18 chanx_right_out[4]
*19 chanx_right_out[5]
*20 chanx_right_out[6]
*21 chanx_right_out[7]
*22 chanx_right_out[8]
*23 chany_bottom_in[0]
*24 chany_bottom_in[1]
*25 chany_bottom_in[2]
*26 chany_bottom_in[3]
*27 chany_bottom_in[4]
*28 chany_bottom_in[5]
*29 chany_bottom_in[6]
*30 chany_bottom_in[7]
*31 chany_bottom_in[8]
*32 chany_bottom_out[0]
*33 chany_bottom_out[1]
*34 chany_bottom_out[2]
*35 chany_bottom_out[3]
*36 chany_bottom_out[4]
*37 chany_bottom_out[5]
*38 chany_bottom_out[6]
*39 chany_bottom_out[7]
*40 chany_bottom_out[8]
*41 prog_clk
*42 right_bottom_grid_top_width_0_height_0_subtile_0__pin_O_2_
*43 right_top_grid_bottom_width_0_height_0_subtile_0__pin_inpad_0_
*46 _000_
*47 _001_
*48 _002_
*49 _003_
*50 _004_
*51 _005_
*52 _006_
*53 _007_
*54 _008_
*55 _009_
*56 _010_
*57 _011_
*58 _012_
*59 _013_
*60 _014_
*61 _015_
*62 _016_
*63 _017_
*64 _018_
*65 _019_
*66 _020_
*67 _021_
*68 _022_
*69 _023_
*70 clknet_0_prog_clk
*71 clknet_1_0__leaf_prog_clk
*72 clknet_1_1__leaf_prog_clk
*73 mem_bottom_track_1\.DFF_0_\.D
*74 mem_bottom_track_1\.DFF_0_\.Q
*75 mem_bottom_track_1\.DFF_1_\.Q
*76 mem_bottom_track_3\.DFF_0_\.Q
*77 mem_right_track_0\.DFF_0_\.Q
*78 mem_right_track_0\.DFF_1_\.Q
*79 mem_right_track_2\.DFF_0_\.Q
*80 mux_bottom_track_1\.INVTX1_0_\.out
*81 mux_bottom_track_1\.INVTX1_1_\.out
*82 mux_bottom_track_1\.mux_l1_in_0_\.TGATE_0_\.out
*83 mux_bottom_track_1\.mux_l2_in_0_\.TGATE_0_\.out
*84 mux_bottom_track_3\.INVTX1_0_\.out
*85 mux_bottom_track_3\.INVTX1_1_\.out
*86 mux_bottom_track_3\.mux_l1_in_0_\.TGATE_0_\.out
*87 mux_bottom_track_3\.mux_l2_in_0_\.TGATE_0_\.out
*88 mux_right_track_0\.INVTX1_0_\.out
*89 mux_right_track_0\.INVTX1_1_\.out
*90 mux_right_track_0\.mux_l1_in_0_\.TGATE_0_\.out
*91 mux_right_track_0\.mux_l2_in_0_\.TGATE_0_\.out
*92 mux_right_track_2\.INVTX1_0_\.out
*93 mux_right_track_2\.INVTX1_1_\.out
*94 mux_right_track_2\.mux_l1_in_0_\.TGATE_0_\.out
*95 mux_right_track_2\.mux_l2_in_0_\.TGATE_0_\.out
*96 net1
*97 net10
*98 net11
*99 net12
*100 net13
*101 net14
*102 net15
*103 net16
*104 net17
*105 net18
*106 net19
*107 net2
*108 net20
*109 net21
*110 net22
*111 net23
*112 net24
*113 net25
*114 net26
*115 net27
*116 net28
*117 net29
*118 net3
*119 net30
*120 net31
*121 net32
*122 net33
*123 net34
*124 net35
*125 net36
*126 net37
*127 net38
*128 net39
*129 net4
*130 net40
*131 net41
*132 net42
*133 net43
*134 net44
*135 net45
*136 net46
*137 net47
*138 net48
*139 net49
*140 net5
*141 net50
*142 net51
*143 net52
*144 net53
*145 net6
*146 net7
*147 net8
*148 net9
*149 FILLER_0_0_101
*150 FILLER_0_0_12
*151 FILLER_0_0_29
*152 FILLER_0_0_57
*153 FILLER_0_0_61
*154 FILLER_0_0_71
*155 FILLER_0_10_15
*156 FILLER_0_10_27
*157 FILLER_0_10_29
*158 FILLER_0_10_3
*159 FILLER_0_10_41
*160 FILLER_0_10_53
*161 FILLER_0_10_61
*162 FILLER_0_10_66
*163 FILLER_0_10_78
*164 FILLER_0_10_85
*165 FILLER_0_10_93
*166 FILLER_0_10_98
*167 FILLER_0_11_21
*168 FILLER_0_11_33
*169 FILLER_0_11_45
*170 FILLER_0_11_57
*171 FILLER_0_11_69
*172 FILLER_0_11_81
*173 FILLER_0_11_89
*174 FILLER_0_11_9
*175 FILLER_0_12_101
*176 FILLER_0_12_12
*177 FILLER_0_12_16
*178 FILLER_0_12_29
*179 FILLER_0_12_41
*180 FILLER_0_12_53
*181 FILLER_0_12_65
*182 FILLER_0_12_77
*183 FILLER_0_12_83
*184 FILLER_0_13_19
*185 FILLER_0_13_27
*186 FILLER_0_13_29
*187 FILLER_0_13_3
*188 FILLER_0_13_41
*189 FILLER_0_13_53
*190 FILLER_0_13_57
*191 FILLER_0_13_69
*192 FILLER_0_13_81
*193 FILLER_0_1_51
*194 FILLER_0_2_101
*195 FILLER_0_2_20
*196 FILLER_0_2_24
*197 FILLER_0_2_6
*198 FILLER_0_2_79
*199 FILLER_0_3_101
*200 FILLER_0_3_19
*201 FILLER_0_3_27
*202 FILLER_0_3_39
*203 FILLER_0_3_55
*204 FILLER_0_3_57
*205 FILLER_0_3_83
*206 FILLER_0_3_9
*207 FILLER_0_4_101
*208 FILLER_0_4_20
*209 FILLER_0_4_29
*210 FILLER_0_4_3
*211 FILLER_0_4_8
*212 FILLER_0_4_82
*213 FILLER_0_4_85
*214 FILLER_0_5_12
*215 FILLER_0_5_24
*216 FILLER_0_5_36
*217 FILLER_0_5_47
*218 FILLER_0_5_57
*219 FILLER_0_5_87
*220 FILLER_0_6_10
*221 FILLER_0_6_22
*222 FILLER_0_6_29
*223 FILLER_0_6_3
*224 FILLER_0_6_41
*225 FILLER_0_7_21
*226 FILLER_0_7_33
*227 FILLER_0_7_45
*228 FILLER_0_7_53
*229 FILLER_0_7_57
*230 FILLER_0_7_64
*231 FILLER_0_7_68
*232 FILLER_0_7_9
*233 FILLER_0_7_90
*234 FILLER_0_7_98
*235 FILLER_0_8_15
*236 FILLER_0_8_27
*237 FILLER_0_8_29
*238 FILLER_0_8_3
*239 FILLER_0_8_41
*240 FILLER_0_8_53
*241 FILLER_0_8_65
*242 FILLER_0_8_73
*243 FILLER_0_8_82
*244 FILLER_0_8_96
*245 FILLER_0_9_21
*246 FILLER_0_9_33
*247 FILLER_0_9_45
*248 FILLER_0_9_53
*249 FILLER_0_9_57
*250 FILLER_0_9_69
*251 FILLER_0_9_81
*252 FILLER_0_9_89
*253 FILLER_0_9_9
*254 FILLER_0_9_98
*255 PHY_0
*256 PHY_1
*257 PHY_10
*258 PHY_11
*259 PHY_12
*260 PHY_13
*261 PHY_14
*262 PHY_15
*263 PHY_16
*264 PHY_17
*265 PHY_18
*266 PHY_19
*267 PHY_2
*268 PHY_20
*269 PHY_21
*270 PHY_22
*271 PHY_23
*272 PHY_24
*273 PHY_25
*274 PHY_26
*275 PHY_27
*276 PHY_3
*277 PHY_4
*278 PHY_5
*279 PHY_6
*280 PHY_7
*281 PHY_8
*282 PHY_9
*283 TAP_28
*284 TAP_29
*285 TAP_30
*286 TAP_31
*287 TAP_32
*288 TAP_33
*289 TAP_34
*290 TAP_35
*291 TAP_36
*292 TAP_37
*293 TAP_38
*294 TAP_39
*295 TAP_40
*296 TAP_41
*297 TAP_42
*298 TAP_43
*299 TAP_44
*300 TAP_45
*301 TAP_46
*302 TAP_47
*303 TAP_48
*304 TAP_49
*305 TAP_50
*306 TAP_51
*307 _028_
*308 _029_
*309 _030_
*310 _031_
*311 _032_
*312 _033_
*313 _034_
*314 _035_
*315 _036_
*316 _037_
*317 _038_
*318 _039_
*319 _040_
*320 _041_
*321 _042_
*322 _043_
*323 _044_
*324 _045_
*325 _046_
*326 _047_
*327 _048_
*328 _049_
*329 _050_
*330 _051_
*331 _052_
*332 _053_
*333 _054_
*334 _055_
*335 _056_
*336 _057_
*337 _058_
*338 _059_
*339 _060_
*340 _061_
*341 _062_
*342 _063_
*343 _064_
*344 _065_
*345 _066_
*346 _067_
*347 _068_
*348 _069_
*349 _070_
*350 _071_
*351 _076_
*352 _077_
*353 _078_
*354 _079_
*355 _080_
*356 _081_
*357 _082_
*358 _083_
*359 _084_
*360 _085_
*361 _086_
*362 _087_
*363 _088_
*364 _089_
*365 _090_
*366 _091_
*367 _092_
*368 _093_
*369 _093__43
*370 _094_
*371 _094__44
*372 _095_
*373 _096_
*374 _097_
*375 _098_
*376 _098__45
*377 _099_
*378 _100_
*379 _101_
*380 _102_
*381 _103_
*382 _103__46
*383 _104_
*384 _105_
*385 clkbuf_0_prog_clk
*386 clkbuf_1_0__f_prog_clk
*387 clkbuf_1_1__f_prog_clk
*388 hold1
*389 hold2
*390 hold3
*391 hold4
*392 hold5
*393 hold6
*394 hold7
*395 input1
*396 input10
*397 input11
*398 input12
*399 input13
*400 input14
*401 input15
*402 input16
*403 input17
*404 input18
*405 input19
*406 input2
*407 input20
*408 input21
*409 input22
*410 input23
*411 input3
*412 input4
*413 input5
*414 input6
*415 input7
*416 input8
*417 input9
*418 output24
*419 output25
*420 output26
*421 output27
*422 output28
*423 output29
*424 output30
*425 output31
*426 output32
*427 output33
*428 output34
*429 output35
*430 output36
*431 output37
*432 output38
*433 output39
*434 output40
*435 output41
*436 output42

*PORTS
bottom_left_grid_right_width_0_height_0_subtile_0__pin_inpad_0_ I
bottom_right_grid_left_width_0_height_0_subtile_0__pin_O_1_ I
ccff_head I
ccff_tail O
chanx_right_in[0] I
chanx_right_in[1] I
chanx_right_in[2] I
chanx_right_in[3] I
chanx_right_in[4] I
chanx_right_in[5] I
chanx_right_in[6] I
chanx_right_in[7] I
chanx_right_in[8] I
chanx_right_out[0] O
chanx_right_out[1] O
chanx_right_out[2] O
chanx_right_out[3] O
chanx_right_out[4] O
chanx_right_out[5] O
chanx_right_out[6] O
chanx_right_out[7] O
chanx_right_out[8] O
chany_bottom_in[0] I
chany_bottom_in[1] I
chany_bottom_in[2] I
chany_bottom_in[3] I
chany_bottom_in[4] I
chany_bottom_in[5] I
chany_bottom_in[6] I
chany_bottom_in[7] I
chany_bottom_in[8] I
chany_bottom_out[0] O
chany_bottom_out[1] O
chany_bottom_out[2] O
chany_bottom_out[3] O
chany_bottom_out[4] O
chany_bottom_out[5] O
chany_bottom_out[6] O
chany_bottom_out[7] O
chany_bottom_out[8] O
prog_clk I
right_bottom_grid_top_width_0_height_0_subtile_0__pin_O_2_ I
right_top_grid_bottom_width_0_height_0_subtile_0__pin_inpad_0_ I

*D_NET *1 0.00157213
*CONN
*P bottom_left_grid_right_width_0_height_0_subtile_0__pin_inpad_0_ I
*I *395:A I *D sky130_fd_sc_hd__clkbuf_1
*CAP
1 bottom_left_grid_right_width_0_height_0_subtile_0__pin_inpad_0_ 0.000786066
2 *395:A 0.000786066
3 *395:A chany_bottom_out[0] 0
4 *395:A chany_bottom_out[1] 0
5 *395:A *316:A 0
6 *395:A *341:A 0
7 *395:A *399:A 0
8 *395:A *81:20 0
9 *395:A *147:32 0
*RES
1 bottom_left_grid_right_width_0_height_0_subtile_0__pin_inpad_0_ *395:A 28.7464 
*END

*D_NET *2 0.00236869
*CONN
*P bottom_right_grid_left_width_0_height_0_subtile_0__pin_O_1_ I
*I *406:A I *D sky130_fd_sc_hd__buf_1
*CAP
1 bottom_right_grid_left_width_0_height_0_subtile_0__pin_O_1_ 0.000930261
2 *406:A 0.000930261
3 *406:A *313:A 0.000144498
4 *406:A *338:A 5.7661e-06
5 *406:A *367:A 0.000255336
6 *406:A *377:TE_B 0
7 *406:A *377:Z 4.34713e-05
8 *406:A *408:A 0
9 *406:A *414:A 0
10 *406:A *415:A 5.90995e-05
*RES
1 bottom_right_grid_left_width_0_height_0_subtile_0__pin_O_1_ *406:A 30.9964 
*END

*D_NET *3 0.00412361
*CONN
*P ccff_head I
*I *411:A I *D sky130_fd_sc_hd__clkbuf_1
*CAP
1 ccff_head 0.00152281
2 *411:A 0.00152281
3 *411:A ccff_tail 0.000146983
4 *411:A *344:D 0.000167182
5 *411:A *345:D 9.62371e-05
6 *411:A *348:D 7.57394e-05
7 *411:A *372:Z 8.23597e-06
8 *411:A *388:A 2.09897e-05
9 *411:A *396:A 0
10 *411:A *397:A 0
11 *411:A *398:A 5.26339e-05
12 *411:A *409:A 0
13 *411:A *418:A 0.000509991
14 *411:A *75:24 0
*RES
1 ccff_head *411:A 30.7406 
*END

*D_NET *4 0.000657875
*CONN
*P ccff_tail O
*I *418:X O *D sky130_fd_sc_hd__buf_2
*CAP
1 ccff_tail 0.000225877
2 *418:X 0.000225877
3 ccff_tail chanx_right_out[0] 0
4 ccff_tail *368:TE_B 0
5 ccff_tail *398:A 2.06178e-05
6 ccff_tail *409:A 3.85196e-05
7 *411:A ccff_tail 0.000146983
*RES
1 *418:X ccff_tail 18.1949 
*END

*D_NET *5 0.00617835
*CONN
*P chanx_right_in[0] I
*I *412:A I *D sky130_fd_sc_hd__buf_1
*CAP
1 chanx_right_in[0] 0.0013323
2 *412:A 0.0013323
3 *412:A *338:A 0.00102947
4 *412:A *380:Z 0.000612477
5 *412:A *405:A 2.21416e-05
6 *412:A *408:A 0
7 *412:A *410:A 0.00133696
8 *412:A *413:A 3.84566e-05
9 *412:A *414:A 0
10 *412:A *415:A 0
11 *412:A *49:16 0.000212373
12 *412:A *75:40 0
13 *412:A *105:14 0.000186662
14 *412:A *146:20 7.52059e-05
*RES
1 chanx_right_in[0] *412:A 41.6471 
*END

*D_NET *6 0.00321745
*CONN
*P chanx_right_in[1] I
*I *413:A I *D sky130_fd_sc_hd__clkbuf_1
*CAP
1 chanx_right_in[1] 0.00127378
2 *413:A 0.00127378
3 *413:A *337:A 0
4 *413:A *378:TE_B 0.000269795
5 *413:A *389:A 0.000304394
6 *413:A *414:A 3.52949e-05
7 *413:A *74:31 2.19404e-05
8 *413:A *90:12 0
9 *412:A *413:A 3.84566e-05
*RES
1 chanx_right_in[1] *413:A 38.5297 
*END

*D_NET *7 0.00204356
*CONN
*P chanx_right_in[2] I
*I *414:A I *D sky130_fd_sc_hd__clkbuf_1
*CAP
1 chanx_right_in[2] 0.000721822
2 *414:A 0.000721822
3 *414:A *337:A 5.71472e-05
4 *414:A *367:TE_B 0
5 *414:A *379:TE_B 0.000112953
6 *414:A *415:A 0.00023554
7 *414:A *83:18 0.000108767
8 *414:A *90:12 5.02112e-05
9 *406:A *414:A 0
10 *412:A *414:A 0
11 *413:A *414:A 3.52949e-05
*RES
1 chanx_right_in[2] *414:A 29.0693 
*END

*D_NET *8 0.00335823
*CONN
*P chanx_right_in[3] I
*I *415:A I *D sky130_fd_sc_hd__clkbuf_1
*CAP
1 chanx_right_in[3] 0.0011492
2 *415:A 0.0011492
3 *415:A *330:A 9.77021e-06
4 *415:A *338:A 0.000124558
5 *415:A *377:A 0
6 *415:A *405:A 0
7 *415:A *407:A 1.94879e-05
8 *415:A *408:A 0.000203519
9 *415:A *416:A 0.000286558
10 *415:A *417:A 0
11 *415:A *105:14 0.000100685
12 *415:A *147:32 2.06178e-05
13 *406:A *415:A 5.90995e-05
14 *412:A *415:A 0
15 *414:A *415:A 0.00023554
*RES
1 chanx_right_in[3] *415:A 26.7567 
*END

*D_NET *9 0.00315699
*CONN
*P chanx_right_in[4] I
*I *416:A I *D sky130_fd_sc_hd__clkbuf_1
*CAP
1 chanx_right_in[4] 0.00115407
2 *416:A 0.00115407
3 *416:A *330:A 8.10199e-05
4 *416:A *367:TE_B 2.28297e-05
5 *416:A *417:A 0.000458443
6 *415:A *416:A 0.000286558
*RES
1 chanx_right_in[4] *416:A 27.7837 
*END

*D_NET *10 0.0098059
*CONN
*P chanx_right_in[5] I
*I *417:A I *D sky130_fd_sc_hd__clkbuf_1
*CAP
1 chanx_right_in[5] 0.00303394
2 *417:A 0.00303394
3 *417:A *314:A 0.000911201
4 *417:A *330:A 0.000130297
5 *417:A *338:A 0.00044318
6 *417:A *340:A 8.51168e-05
7 *417:A *349:CLK 2.09655e-05
8 *417:A *360:A 0.000383326
9 *417:A *380:A 5.52238e-05
10 *417:A *380:Z 9.83388e-05
11 *417:A *396:A 0
12 *417:A *397:A 0
13 *417:A *402:A 0
14 *417:A *403:A 4.05562e-05
15 *417:A *407:A 1.90936e-05
16 *417:A *408:A 0
17 *417:A *49:16 0.000154897
18 *417:A *71:10 9.80405e-05
19 *417:A *71:48 2.50833e-05
20 *417:A *103:32 0.000111649
21 *417:A *147:32 0.000702604
22 *415:A *417:A 0
23 *416:A *417:A 0.000458443
*RES
1 chanx_right_in[5] *417:A 37.9036 
*END

*D_NET *11 0.00920315
*CONN
*P chanx_right_in[6] I
*I *396:A I *D sky130_fd_sc_hd__clkbuf_1
*CAP
1 chanx_right_in[6] 0.00282942
2 *396:A 0.00282942
3 *396:A *308:A 2.1692e-05
4 *396:A *309:A 0.000412759
5 *396:A *311:A 0.000125243
6 *396:A *336:A 8.23034e-05
7 *396:A *339:A 0.000564297
8 *396:A *340:A 5.30637e-06
9 *396:A *360:A 0.000172658
10 *396:A *381:TE_B 5.06028e-05
11 *396:A *397:A 7.41026e-05
12 *396:A *401:A 0.000118515
13 *396:A *402:A 9.41642e-05
14 *396:A *75:24 0.00105743
15 *396:A *109:16 0.000122626
16 *396:A *112:10 1.90936e-05
17 *396:A *145:38 0.000453334
18 *396:A *146:20 0.000170173
19 *411:A *396:A 0
20 *417:A *396:A 0
*RES
1 chanx_right_in[6] *396:A 48.2877 
*END

*D_NET *12 0.00218612
*CONN
*P chanx_right_in[7] I
*I *397:A I *D sky130_fd_sc_hd__clkbuf_1
*CAP
1 chanx_right_in[7] 0.000767563
2 *397:A 0.000767563
3 *397:A *312:A 5.50207e-05
4 *397:A *337:A 1.17968e-05
5 *397:A *366:A 0.000165157
6 *397:A *366:TE_B 0.000113573
7 *397:A *379:TE_B 9.83442e-05
8 *397:A *398:A 0.000133003
9 *396:A *397:A 7.41026e-05
10 *411:A *397:A 0
11 *417:A *397:A 0
*RES
1 chanx_right_in[7] *397:A 26.0866 
*END

*D_NET *13 0.00240203
*CONN
*P chanx_right_in[8] I
*I *398:A I *D sky130_fd_sc_hd__clkbuf_1
*CAP
1 chanx_right_in[8] 0.000917384
2 *398:A 0.000917384
3 *398:A chanx_right_out[0] 2.06178e-05
4 *398:A *333:A 4.10796e-05
5 *398:A *337:A 0.000142537
6 *398:A *366:Z 0
7 *398:A *368:TE_B 0
8 *398:A *409:A 0
9 *398:A *419:A 0.000102624
10 *398:A *420:A 5.41494e-05
11 ccff_tail *398:A 2.06178e-05
12 *397:A *398:A 0.000133003
13 *411:A *398:A 5.26339e-05
*RES
1 chanx_right_in[8] *398:A 32.2836 
*END

*D_NET *14 0.000695266
*CONN
*P chanx_right_out[0] O
*I *419:X O *D sky130_fd_sc_hd__buf_2
*CAP
1 chanx_right_out[0] 0.000266615
2 *419:X 0.000266615
3 chanx_right_out[0] chanx_right_out[1] 5.99254e-05
4 chanx_right_out[0] *409:A 6.9297e-05
5 chanx_right_out[0] *419:A 1.21955e-05
6 ccff_tail chanx_right_out[0] 0
7 *398:A chanx_right_out[0] 2.06178e-05
*RES
1 *419:X chanx_right_out[0] 18.1949 
*END

*D_NET *15 0.000833019
*CONN
*P chanx_right_out[1] O
*I *420:X O *D sky130_fd_sc_hd__buf_2
*CAP
1 chanx_right_out[1] 0.000313616
2 *420:X 0.000313616
3 chanx_right_out[1] chanx_right_out[2] 0.000133003
4 chanx_right_out[1] chanx_right_out[3] 0
5 chanx_right_out[1] *409:A 0
6 chanx_right_out[1] *420:A 1.28585e-05
7 chanx_right_out[0] chanx_right_out[1] 5.99254e-05
*RES
1 *420:X chanx_right_out[1] 18.9995 
*END

*D_NET *16 0.000753563
*CONN
*P chanx_right_out[2] O
*I *421:X O *D sky130_fd_sc_hd__clkbuf_4
*CAP
1 chanx_right_out[2] 0.000211513
2 *421:X 0.000211513
3 chanx_right_out[2] chanx_right_out[3] 0.000197534
4 chanx_right_out[2] *423:A 0
5 chanx_right_out[1] chanx_right_out[2] 0.000133003
*RES
1 *421:X chanx_right_out[2] 18.6586 
*END

*D_NET *17 0.00136848
*CONN
*P chanx_right_out[3] O
*I *422:X O *D sky130_fd_sc_hd__buf_2
*CAP
1 chanx_right_out[3] 0.000515518
2 *422:X 0.000515518
3 chanx_right_out[3] chanx_right_out[4] 0
4 chanx_right_out[3] chanx_right_out[5] 0
5 chanx_right_out[3] *421:A 0.000139913
6 chanx_right_out[1] chanx_right_out[3] 0
7 chanx_right_out[2] chanx_right_out[3] 0.000197534
*RES
1 *422:X chanx_right_out[3] 22.1501 
*END

*D_NET *18 0.000966654
*CONN
*P chanx_right_out[4] O
*I *423:X O *D sky130_fd_sc_hd__buf_2
*CAP
1 chanx_right_out[4] 0.000315352
2 *423:X 0.000315352
3 chanx_right_out[4] chanx_right_out[5] 0.000268316
4 chanx_right_out[4] *426:A 6.76337e-05
5 chanx_right_out[3] chanx_right_out[4] 0
*RES
1 *423:X chanx_right_out[4] 18.9462 
*END

*D_NET *19 0.0020578
*CONN
*P chanx_right_out[5] O
*I *424:X O *D sky130_fd_sc_hd__clkbuf_4
*CAP
1 chanx_right_out[5] 0.000862111
2 *424:X 0.000862111
3 chanx_right_out[5] chanx_right_out[6] 8.13424e-06
4 chanx_right_out[5] *424:A 5.71263e-05
5 chanx_right_out[3] chanx_right_out[5] 0
6 chanx_right_out[4] chanx_right_out[5] 0.000268316
*RES
1 *424:X chanx_right_out[5] 20.7728 
*END

*D_NET *20 0.00183521
*CONN
*P chanx_right_out[6] O
*I *425:X O *D sky130_fd_sc_hd__clkbuf_4
*CAP
1 chanx_right_out[6] 0.000596268
2 *425:X 0.000596268
3 chanx_right_out[6] chanx_right_out[7] 0.000116941
4 chanx_right_out[6] chanx_right_out[8] 0.000265069
5 chanx_right_out[6] *426:A 0.000151843
6 chanx_right_out[6] *427:A 0
7 chanx_right_out[6] *121:8 0.000100685
8 chanx_right_out[5] chanx_right_out[6] 8.13424e-06
*RES
1 *425:X chanx_right_out[6] 25.3575 
*END

*D_NET *21 0.00112879
*CONN
*P chanx_right_out[7] O
*I *426:X O *D sky130_fd_sc_hd__clkbuf_4
*CAP
1 chanx_right_out[7] 0.000447456
2 *426:X 0.000447456
3 chanx_right_out[7] chanx_right_out[8] 0.000116941
4 chanx_right_out[6] chanx_right_out[7] 0.000116941
*RES
1 *426:X chanx_right_out[7] 24.1229 
*END

*D_NET *22 0.00176247
*CONN
*P chanx_right_out[8] O
*I *427:X O *D sky130_fd_sc_hd__clkbuf_4
*CAP
1 chanx_right_out[8] 0.000690231
2 *427:X 0.000690231
3 chanx_right_out[6] chanx_right_out[8] 0.000265069
4 chanx_right_out[7] chanx_right_out[8] 0.000116941
*RES
1 *427:X chanx_right_out[8] 26.9838 
*END

*D_NET *23 0.00250512
*CONN
*P chany_bottom_in[0] I
*I *399:A I *D sky130_fd_sc_hd__clkbuf_1
*CAP
1 chany_bottom_in[0] 0.000633433
2 *399:A 0.000633433
3 *399:A *310:A 0.000122107
4 *399:A *316:A 6.76365e-05
5 *399:A *339:A 9.51689e-05
6 *399:A *341:A 0.000137211
7 *399:A *400:A 0.000710355
8 *399:A *429:A 2.51343e-06
9 *399:A *130:14 0.00010326
10 *395:A *399:A 0
*RES
1 chany_bottom_in[0] *399:A 30.3536 
*END

*D_NET *24 0.00342373
*CONN
*P chany_bottom_in[1] I
*I *400:A I *D sky130_fd_sc_hd__buf_1
*CAP
1 chany_bottom_in[1] 0.000938107
2 *400:A 0.000938107
3 *400:A *336:A 1.56046e-05
4 *400:A *360:A 0.000159041
5 *400:A *364:A 0
6 *400:A *401:A 0
7 *400:A *408:A 0
8 *400:A *433:A 0.000250193
9 *400:A *100:16 0
10 *400:A *101:12 2.79421e-05
11 *400:A *109:16 0
12 *400:A *130:14 0.000384385
13 *399:A *400:A 0.000710355
*RES
1 chany_bottom_in[1] *400:A 38.0321 
*END

*D_NET *25 0.00299212
*CONN
*P chany_bottom_in[2] I
*I *401:A I *D sky130_fd_sc_hd__buf_1
*CAP
1 chany_bottom_in[2] 0.00106492
2 *401:A 0.00106492
3 *401:A *311:A 0.000125243
4 *401:A *364:A 5.33005e-05
5 *401:A *380:TE_B 0.00029717
6 *401:A *390:A 0
7 *401:A *402:A 0
8 *401:A *407:A 0
9 *401:A *408:A 0
10 *401:A *63:16 0
11 *401:A *76:12 0
12 *401:A *104:12 0
13 *401:A *109:16 2.15666e-05
14 *401:A *146:20 0.000246495
15 *396:A *401:A 0.000118515
16 *400:A *401:A 0
*RES
1 chany_bottom_in[2] *401:A 36.3179 
*END

*D_NET *26 0.00345526
*CONN
*P chany_bottom_in[3] I
*I *402:A I *D sky130_fd_sc_hd__buf_1
*CAP
1 chany_bottom_in[3] 0.000941272
2 *402:A 0.000941272
3 *402:A *311:A 0.000264146
4 *402:A *314:A 0.000484872
5 *402:A *315:A 0.000136951
6 *402:A *340:A 3.74503e-05
7 *402:A *349:CLK 0
8 *402:A *384:TE_B 0.00031116
9 *402:A *385:A 0
10 *402:A *403:A 9.25014e-06
11 *402:A *428:A 3.41517e-06
12 *402:A *63:16 5.33005e-05
13 *402:A *71:10 0
14 *402:A *76:12 9.99853e-05
15 *402:A *103:32 1.58163e-05
16 *402:A *129:16 6.22016e-05
17 *396:A *402:A 9.41642e-05
18 *401:A *402:A 0
19 *417:A *402:A 0
*RES
1 chany_bottom_in[3] *402:A 33.925 
*END

*D_NET *27 0.00348676
*CONN
*P chany_bottom_in[4] I
*I *403:A I *D sky130_fd_sc_hd__clkbuf_1
*CAP
1 chany_bottom_in[4] 0.00117781
2 *403:A 0.00117781
3 *403:A *310:A 9.93955e-05
4 *403:A *330:A 8.48485e-05
5 *403:A *339:A 1.21289e-05
6 *403:A *340:A 0.000109479
7 *403:A *349:CLK 0.000125903
8 *403:A *349:D 5.92278e-05
9 *403:A *350:D 0.000295448
10 *403:A *380:Z 5.20383e-05
11 *403:A *383:A 2.87187e-05
12 *403:A *384:TE_B 5.31039e-05
13 *403:A *390:A 4.72917e-05
14 *403:A *404:A 0
15 *403:A *71:20 9.0145e-05
16 *403:A *129:16 2.36085e-05
17 *402:A *403:A 9.25014e-06
18 *417:A *403:A 4.05562e-05
*RES
1 chany_bottom_in[4] *403:A 45.0679 
*END

*D_NET *28 0.000995319
*CONN
*P chany_bottom_in[5] I
*I *404:A I *D sky130_fd_sc_hd__clkbuf_1
*CAP
1 chany_bottom_in[5] 0.000432392
2 *404:A 0.000432392
3 *404:A *330:A 0
4 *404:A *386:A 4.6025e-06
5 *404:A *410:A 0
6 *404:A *75:40 0.000125934
7 *403:A *404:A 0
*RES
1 chany_bottom_in[5] *404:A 21.8357 
*END

*D_NET *29 0.00104036
*CONN
*P chany_bottom_in[6] I
*I *405:A I *D sky130_fd_sc_hd__clkbuf_1
*CAP
1 chany_bottom_in[6] 0.00050911
2 *405:A 0.00050911
3 *405:A *407:A 0
4 *405:A *146:20 0
5 *412:A *405:A 2.21416e-05
6 *415:A *405:A 0
*RES
1 chany_bottom_in[6] *405:A 24.2464 
*END

*D_NET *30 0.00466664
*CONN
*P chany_bottom_in[7] I
*I *407:A I *D sky130_fd_sc_hd__buf_1
*CAP
1 chany_bottom_in[7] 0.000927431
2 *407:A 0.000927431
3 *407:A *377:A 1.74352e-05
4 *407:A *377:TE_B 0.00108905
5 *407:A *408:A 0
6 *407:A *63:16 0.0001454
7 *407:A *146:20 0.00152131
8 *401:A *407:A 0
9 *405:A *407:A 0
10 *415:A *407:A 1.94879e-05
11 *417:A *407:A 1.90936e-05
*RES
1 chany_bottom_in[7] *407:A 49.8536 
*END

*D_NET *31 0.00648208
*CONN
*P chany_bottom_in[8] I
*I *408:A I *D sky130_fd_sc_hd__buf_1
*CAP
1 chany_bottom_in[8] 0.00251523
2 *408:A 0.00251523
3 *408:A *330:A 0
4 *408:A *385:A 0.000871319
5 *408:A *75:40 0.000203202
6 *408:A *146:20 0
7 *408:A *147:32 0.000173569
8 *400:A *408:A 0
9 *401:A *408:A 0
10 *406:A *408:A 0
11 *407:A *408:A 0
12 *412:A *408:A 0
13 *415:A *408:A 0.000203519
14 *417:A *408:A 0
*RES
1 chany_bottom_in[8] *408:A 33.5529 
*END

*D_NET *32 0.000657899
*CONN
*P chany_bottom_out[0] O
*I *428:X O *D sky130_fd_sc_hd__clkbuf_4
*CAP
1 chany_bottom_out[0] 0.000313185
2 *428:X 0.000313185
3 chany_bottom_out[0] chany_bottom_out[1] 0
4 chany_bottom_out[0] *385:A 0
5 chany_bottom_out[0] *147:32 3.15282e-05
6 *395:A chany_bottom_out[0] 0
*RES
1 *428:X chany_bottom_out[0] 19.0026 
*END

*D_NET *33 0.000751691
*CONN
*P chany_bottom_out[1] O
*I *429:X O *D sky130_fd_sc_hd__clkbuf_4
*CAP
1 chany_bottom_out[1] 0.000375845
2 *429:X 0.000375845
3 chany_bottom_out[1] chany_bottom_out[2] 0
4 chany_bottom_out[1] *147:32 0
5 chany_bottom_out[0] chany_bottom_out[1] 0
6 *395:A chany_bottom_out[1] 0
*RES
1 *429:X chany_bottom_out[1] 21.5661 
*END

*D_NET *34 0.000738689
*CONN
*P chany_bottom_out[2] O
*I *430:X O *D sky130_fd_sc_hd__clkbuf_4
*CAP
1 chany_bottom_out[2] 0.000369344
2 *430:X 0.000369344
3 chany_bottom_out[2] chany_bottom_out[3] 0
4 chany_bottom_out[2] *147:32 0
5 chany_bottom_out[1] chany_bottom_out[2] 0
*RES
1 *430:X chany_bottom_out[2] 21.5661 
*END

*D_NET *35 0.000747753
*CONN
*P chany_bottom_out[3] O
*I *431:X O *D sky130_fd_sc_hd__clkbuf_4
*CAP
1 chany_bottom_out[3] 0.000373876
2 *431:X 0.000373876
3 chany_bottom_out[3] chany_bottom_out[4] 0
4 chany_bottom_out[3] *431:A 0
5 chany_bottom_out[2] chany_bottom_out[3] 0
*RES
1 *431:X chany_bottom_out[3] 21.5661 
*END

*D_NET *36 0.000630426
*CONN
*P chany_bottom_out[4] O
*I *432:X O *D sky130_fd_sc_hd__clkbuf_4
*CAP
1 chany_bottom_out[4] 0.000315213
2 *432:X 0.000315213
3 chany_bottom_out[4] chany_bottom_out[5] 0
4 chany_bottom_out[4] *130:14 0
5 chany_bottom_out[3] chany_bottom_out[4] 0
*RES
1 *432:X chany_bottom_out[4] 19.4092 
*END

*D_NET *37 0.000715608
*CONN
*P chany_bottom_out[5] O
*I *433:X O *D sky130_fd_sc_hd__clkbuf_4
*CAP
1 chany_bottom_out[5] 0.000357804
2 *433:X 0.000357804
3 chany_bottom_out[5] chany_bottom_out[6] 0
4 chany_bottom_out[5] *130:14 0
5 chany_bottom_out[4] chany_bottom_out[5] 0
*RES
1 *433:X chany_bottom_out[5] 18.7586 
*END

*D_NET *38 0.00104451
*CONN
*P chany_bottom_out[6] O
*I *434:X O *D sky130_fd_sc_hd__clkbuf_4
*CAP
1 chany_bottom_out[6] 0.000520409
2 *434:X 0.000520409
3 chany_bottom_out[6] chany_bottom_out[7] 0
4 chany_bottom_out[6] *130:14 3.69047e-06
5 chany_bottom_out[5] chany_bottom_out[6] 0
*RES
1 *434:X chany_bottom_out[6] 23.2089 
*END

*D_NET *39 0.00095961
*CONN
*P chany_bottom_out[7] O
*I *435:X O *D sky130_fd_sc_hd__clkbuf_4
*CAP
1 chany_bottom_out[7] 0.000479805
2 *435:X 0.000479805
3 chany_bottom_out[7] chany_bottom_out[8] 0
4 chany_bottom_out[7] *130:14 0
5 chany_bottom_out[6] chany_bottom_out[7] 0
*RES
1 *435:X chany_bottom_out[7] 20.9901 
*END

*D_NET *40 0.00178677
*CONN
*P chany_bottom_out[8] O
*I *436:X O *D sky130_fd_sc_hd__clkbuf_4
*CAP
1 chany_bottom_out[8] 0.000893386
2 *436:X 0.000893386
3 chany_bottom_out[7] chany_bottom_out[8] 0
*RES
1 *436:X chany_bottom_out[8] 26.186 
*END

*D_NET *41 0.00626431
*CONN
*P prog_clk I
*I *385:A I *D sky130_fd_sc_hd__clkbuf_16
*CAP
1 prog_clk 0.00213241
2 *385:A 0.00213241
3 *385:A *308:A 6.47939e-05
4 *385:A *339:A 4.93999e-05
5 *385:A *346:D 9.25154e-05
6 *385:A *384:TE_B 0
7 *385:A *390:A 1.60757e-05
8 *385:A *63:16 0.00030661
9 *385:A *76:12 0
10 *385:A *104:12 0
11 *385:A *129:16 0.000598774
12 *385:A *147:32 0
13 chany_bottom_out[0] *385:A 0
14 *402:A *385:A 0
15 *408:A *385:A 0.000871319
*RES
1 prog_clk *385:A 42.4271 
*END

*D_NET *42 0.00069672
*CONN
*P right_bottom_grid_top_width_0_height_0_subtile_0__pin_O_2_ I
*I *409:A I *D sky130_fd_sc_hd__clkbuf_1
*CAP
1 right_bottom_grid_top_width_0_height_0_subtile_0__pin_O_2_ 0.000294452
2 *409:A 0.000294452
3 ccff_tail *409:A 3.85196e-05
4 chanx_right_out[0] *409:A 6.9297e-05
5 chanx_right_out[1] *409:A 0
6 *398:A *409:A 0
7 *411:A *409:A 0
*RES
1 right_bottom_grid_top_width_0_height_0_subtile_0__pin_O_2_ *409:A 19.85 
*END

*D_NET *43 0.00381022
*CONN
*P right_top_grid_bottom_width_0_height_0_subtile_0__pin_inpad_0_ I
*I *410:A I *D sky130_fd_sc_hd__buf_1
*CAP
1 right_top_grid_bottom_width_0_height_0_subtile_0__pin_inpad_0_ 0.00120902
2 *410:A 0.00120902
3 *410:A *338:A 5.52238e-05
4 *410:A *75:40 0
5 *404:A *410:A 0
6 *412:A *410:A 0.00133696
*RES
1 right_top_grid_bottom_width_0_height_0_subtile_0__pin_inpad_0_ *410:A 32.2542 
*END

*D_NET *46 0.000936975
*CONN
*I *309:A I *D sky130_fd_sc_hd__clkbuf_1
*I *308:X O *D sky130_fd_sc_hd__clkbuf_1
*CAP
1 *309:A 0.000187988
2 *308:X 0.000187988
3 *309:A *308:A 0.00014824
4 *396:A *309:A 0.000412759
*RES
1 *308:X *309:A 23.5643 
*END

*D_NET *47 0.00107827
*CONN
*I *311:A I *D sky130_fd_sc_hd__clkbuf_1
*I *310:X O *D sky130_fd_sc_hd__clkbuf_1
*CAP
1 *311:A 0.000278793
2 *310:X 0.000278793
3 *311:A *310:A 6.05161e-06
4 *396:A *311:A 0.000125243
5 *401:A *311:A 0.000125243
6 *402:A *311:A 0.000264146
*RES
1 *310:X *311:A 32.2429 
*END

*D_NET *48 0.000360425
*CONN
*I *315:A I *D sky130_fd_sc_hd__buf_1
*I *314:X O *D sky130_fd_sc_hd__clkbuf_1
*CAP
1 *315:A 8.99718e-05
2 *314:X 8.99718e-05
3 *315:A *340:A 4.35306e-05
4 *402:A *315:A 0.000136951
*RES
1 *314:X *315:A 20.6893 
*END

*D_NET *49 0.00534978
*CONN
*I *317:A I *D sky130_fd_sc_hd__clkbuf_1
*I *316:X O *D sky130_fd_sc_hd__clkbuf_1
*CAP
1 *317:A 0
2 *316:X 0.00139049
3 *49:16 0.00139049
4 *49:16 *336:A 0.000149074
5 *49:16 *338:A 8.43535e-06
6 *49:16 *341:A 2.89016e-05
7 *49:16 *380:A 0.000442566
8 *49:16 *380:Z 0.000919147
9 *49:16 *71:10 0.000100685
10 *49:16 *75:40 4.51304e-05
11 *49:16 *105:14 0.00010096
12 *49:16 *111:20 0.000305679
13 *49:16 *129:16 0.00010096
14 *412:A *49:16 0.000212373
15 *417:A *49:16 0.000154897
*RES
1 *316:X *49:16 45.2286 
2 *49:16 *317:A 9.3 
*END

*D_NET *50 0.000203898
*CONN
*I *321:A I *D sky130_fd_sc_hd__clkbuf_1
*I *320:X O *D sky130_fd_sc_hd__clkbuf_1
*CAP
1 *321:A 0.000101949
2 *320:X 0.000101949
*RES
1 *320:X *321:A 20.2786 
*END

*D_NET *51 0.000615906
*CONN
*I *323:A I *D sky130_fd_sc_hd__clkbuf_1
*I *322:X O *D sky130_fd_sc_hd__clkbuf_1
*CAP
1 *323:A 0.000240548
2 *322:X 0.000240548
3 *323:A *318:A 3.5707e-05
4 *323:A *374:TE_B 9.91033e-05
5 *323:A *105:14 0
*RES
1 *322:X *323:A 31.9571 
*END

*D_NET *52 0.00162753
*CONN
*I *325:A I *D sky130_fd_sc_hd__clkbuf_1
*I *324:X O *D sky130_fd_sc_hd__clkbuf_1
*CAP
1 *325:A 0.000576514
2 *324:X 0.000576514
3 *325:A *326:A 1.92789e-05
4 *325:A *332:A 0.000146071
5 *325:A *334:A 2.59355e-05
6 *325:A *368:TE_B 0.000265385
7 *325:A *418:A 0
8 *325:A *419:A 1.78353e-05
9 *325:A *95:8 0
*RES
1 *324:X *325:A 36.85 
*END

*D_NET *53 0.00139885
*CONN
*I *328:A I *D sky130_fd_sc_hd__clkbuf_1
*I *327:X O *D sky130_fd_sc_hd__clkbuf_1
*CAP
1 *328:A 0.000399384
2 *327:X 0.000399384
3 *328:A *391:A 0.000295708
4 *328:A *77:14 3.41517e-06
5 *328:A *77:21 0.000224308
6 *328:A *111:20 7.66506e-05
*RES
1 *327:X *328:A 26.1536 
*END

*D_NET *54 0.00153789
*CONN
*I *365:TE_B I *D sky130_fd_sc_hd__ebufn_1
*I *329:Y O *D sky130_fd_sc_hd__inv_2
*CAP
1 *365:TE_B 0.000356203
2 *329:Y 0.000356203
3 *365:TE_B *329:A 6.05161e-06
4 *365:TE_B *365:A 9.83239e-05
5 *365:TE_B *372:Z 4.63768e-05
6 *365:TE_B *379:TE_B 0.000313037
7 *365:TE_B *75:14 0.000314692
8 *365:TE_B *83:18 4.70078e-05
*RES
1 *329:Y *365:TE_B 35.6179 
*END

*D_NET *55 0.00112804
*CONN
*I *366:TE_B I *D sky130_fd_sc_hd__ebufn_2
*I *326:Y O *D sky130_fd_sc_hd__inv_2
*CAP
1 *366:TE_B 0.000166638
2 *326:Y 0.000166638
3 *366:TE_B *312:A 0.000100261
4 *366:TE_B *337:A 0.000446057
5 *366:TE_B *366:A 7.43578e-06
6 *366:TE_B *366:Z 0
7 *366:TE_B *372:Z 0.000103775
8 *366:TE_B *379:TE_B 2.36643e-05
9 *397:A *366:TE_B 0.000113573
*RES
1 *326:Y *366:TE_B 33.5821 
*END

*D_NET *56 0.00165122
*CONN