*SPEF "ieee 1481-1999"
*DESIGN "sb_0__10_"
*DATE "11:11:11 Fri 11 11, 1111"
*VENDOR "OpenRCX"
*PROGRAM "Parallel Extraction"
*VERSION "1.0"
*DESIGN_FLOW "NAME_SCOPE LOCAL" "PIN_CAP NONE"
*DIVIDER /
*DELIMITER :
*BUS_DELIMITER []
*T_UNIT 1 NS
*C_UNIT 1 PF
*R_UNIT 1 OHM
*L_UNIT 1 HENRY

*NAME_MAP
*1 bottom_left_grid_right_width_0_height_0_subtile_0__pin_inpad_0_
*2 bottom_right_grid_left_width_0_height_0_subtile_0__pin_O_1_
*3 ccff_head
*4 ccff_tail
*5 chanx_right_in[0]
*6 chanx_right_in[1]
*7 chanx_right_in[2]
*8 chanx_right_in[3]
*9 chanx_right_in[4]
*10 chanx_right_in[5]
*11 chanx_right_in[6]
*12 chanx_right_in[7]
*13 chanx_right_in[8]
*14 chanx_right_out[0]
*15 chanx_right_out[1]
*16 chanx_right_out[2]
*17 chanx_right_out[3]
*18 chanx_right_out[4]
*19 chanx_right_out[5]
*20 chanx_right_out[6]
*21 chanx_right_out[7]
*22 chanx_right_out[8]
*23 chany_bottom_in[0]
*24 chany_bottom_in[1]
*25 chany_bottom_in[2]
*26 chany_bottom_in[3]
*27 chany_bottom_in[4]
*28 chany_bottom_in[5]
*29 chany_bottom_in[6]
*30 chany_bottom_in[7]
*31 chany_bottom_in[8]
*32 chany_bottom_out[0]
*33 chany_bottom_out[1]
*34 chany_bottom_out[2]
*35 chany_bottom_out[3]
*36 chany_bottom_out[4]
*37 chany_bottom_out[5]
*38 chany_bottom_out[6]
*39 chany_bottom_out[7]
*40 chany_bottom_out[8]
*41 prog_clk
*42 right_bottom_grid_top_width_0_height_0_subtile_0__pin_O_2_
*43 right_top_grid_bottom_width_0_height_0_subtile_0__pin_inpad_0_
*46 _000_
*47 _001_
*48 _002_
*49 _003_
*50 _004_
*51 _005_
*52 _006_
*53 _007_
*54 _008_
*55 _009_
*56 _010_
*57 _011_
*58 _012_
*59 _013_
*60 _014_
*61 _015_
*62 _016_
*63 _017_
*64 _018_
*65 _019_
*66 _020_
*67 _021_
*68 _022_
*69 _023_
*70 clknet_0_prog_clk
*71 clknet_1_0__leaf_prog_clk
*72 clknet_1_1__leaf_prog_clk
*73 mem_bottom_track_1\.DFF_0_\.D
*74 mem_bottom_track_1\.DFF_0_\.Q
*75 mem_bottom_track_1\.DFF_1_\.Q
*76 mem_bottom_track_3\.DFF_0_\.Q
*77 mem_right_track_0\.DFF_0_\.Q
*78 mem_right_track_0\.DFF_1_\.Q
*79 mem_right_track_2\.DFF_0_\.Q
*80 mux_bottom_track_1\.INVTX1_0_\.out
*81 mux_bottom_track_1\.INVTX1_1_\.out
*82 mux_bottom_track_1\.mux_l1_in_0_\.TGATE_0_\.out
*83 mux_bottom_track_1\.mux_l2_in_0_\.TGATE_0_\.out
*84 mux_bottom_track_3\.INVTX1_0_\.out
*85 mux_bottom_track_3\.INVTX1_1_\.out
*86 mux_bottom_track_3\.mux_l1_in_0_\.TGATE_0_\.out
*87 mux_bottom_track_3\.mux_l2_in_0_\.TGATE_0_\.out
*88 mux_right_track_0\.INVTX1_0_\.out
*89 mux_right_track_0\.INVTX1_1_\.out
*90 mux_right_track_0\.mux_l1_in_0_\.TGATE_0_\.out
*91 mux_right_track_0\.mux_l2_in_0_\.TGATE_0_\.out
*92 mux_right_track_2\.INVTX1_0_\.out
*93 mux_right_track_2\.INVTX1_1_\.out
*94 mux_right_track_2\.mux_l1_in_0_\.TGATE_0_\.out
*95 mux_right_track_2\.mux_l2_in_0_\.TGATE_0_\.out
*96 net1
*97 net10
*98 net11
*99 net12
*100 net13
*101 net14
*102 net15
*103 net16
*104 net17
*105 net18
*106 net19
*107 net2
*108 net20
*109 net21
*110 net22
*111 net23
*112 net24
*113 net25
*114 net26
*115 net27
*116 net28
*117 net29
*118 net3
*119 net30
*120 net31
*121 net32
*122 net33
*123 net34
*124 net35
*125 net36
*126 net37
*127 net38
*128 net39
*129 net4
*130 net40
*131 net41
*132 net42
*133 net43
*134 net44
*135 net45
*136 net46
*137 net47
*138 net48
*139 net49
*140 net5
*141 net50
*142 net51
*143 net52
*144 net53
*145 net6
*146 net7
*147 net8
*148 net9
*149 FILLER_0_0_101
*150 FILLER_0_0_12
*151 FILLER_0_0_29
*152 FILLER_0_0_57
*153 FILLER_0_0_61
*154 FILLER_0_0_71
*155 FILLER_0_10_15
*156 FILLER_0_10_27
*157 FILLER_0_10_29
*158 FILLER_0_10_3
*159 FILLER_0_10_41
*160 FILLER_0_10_53
*161 FILLER_0_10_61
*162 FILLER_0_10_66
*163 FILLER_0_10_78
*164 FILLER_0_10_85
*165 FILLER_0_10_93
*166 FILLER_0_10_98
*167 FILLER_0_11_21
*168 FILLER_0_11_33
*169 FILLER_0_11_45
*170 FILLER_0_11_57
*171 FILLER_0_11_69
*172 FILLER_0_11_81
*173 FILLER_0_11_89
*174 FILLER_0_11_9
*175 FILLER_0_12_101
*176 FILLER_0_12_12
*177 FILLER_0_12_16
*178 FILLER_0_12_29
*179 FILLER_0_12_41
*180 FILLER_0_12_53
*181 FILLER_0_12_65
*182 FILLER_0_12_77
*183 FILLER_0_12_83
*184 FILLER_0_13_19
*185 FILLER_0_13_27
*186 FILLER_0_13_29
*187 FILLER_0_13_3
*188 FILLER_0_13_41
*189 FILLER_0_13_53
*190 FILLER_0_13_57
*191 FILLER_0_13_69
*192 FILLER_0_13_81
*193 FILLER_0_1_51
*194 FILLER_0_2_101
*195 FILLER_0_2_20
*196 FILLER_0_2_24
*197 FILLER_0_2_6
*198 FILLER_0_2_79
*199 FILLER_0_3_101
*200 FILLER_0_3_19
*201 FILLER_0_3_27
*202 FILLER_0_3_39
*203 FILLER_0_3_55
*204 FILLER_0_3_57
*205 FILLER_0_3_83
*206 FILLER_0_3_9
*207 FILLER_0_4_101
*208 FILLER_0_4_20
*209 FILLER_0_4_29
*210 FILLER_0_4_3
*211 FILLER_0_4_8
*212 FILLER_0_4_82
*213 FILLER_0_4_85
*214 FILLER_0_5_12
*215 FILLER_0_5_24
*216 FILLER_0_5_36
*217 FILLER_0_5_47
*218 FILLER_0_5_57
*219 FILLER_0_5_87
*220 FILLER_0_6_10
*221 FILLER_0_6_22
*222 FILLER_0_6_29
*223 FILLER_0_6_3
*224 FILLER_0_6_41
*225 FILLER_0_7_21
*226 FILLER_0_7_33
*227 FILLER_0_7_45
*228 FILLER_0_7_53
*229 FILLER_0_7_57
*230 FILLER_0_7_64
*231 FILLER_0_7_68
*232 FILLER_0_7_9
*233 FILLER_0_7_90
*234 FILLER_0_7_98
*235 FILLER_0_8_15
*236 FILLER_0_8_27
*237 FILLER_0_8_29
*238 FILLER_0_8_3
*239 FILLER_0_8_41
*240 FILLER_0_8_53
*241 FILLER_0_8_65
*242 FILLER_0_8_73
*243 FILLER_0_8_82
*244 FILLER_0_8_96
*245 FILLER_0_9_21
*246 FILLER_0_9_33
*247 FILLER_0_9_45
*248 FILLER_0_9_53
*249 FILLER_0_9_57
*250 FILLER_0_9_69
*251 FILLER_0_9_81
*252 FILLER_0_9_89
*253 FILLER_0_9_9
*254 FILLER_0_9_98
*255 PHY_0
*256 PHY_1
*257 PHY_10
*258 PHY_11
*259 PHY_12
*260 PHY_13
*261 PHY_14
*262 PHY_15
*263 PHY_16
*264 PHY_17
*265 PHY_18
*266 PHY_19
*267 PHY_2
*268 PHY_20
*269 PHY_21
*270 PHY_22
*271 PHY_23
*272 PHY_24
*273 PHY_25
*274 PHY_26
*275 PHY_27
*276 PHY_3
*277 PHY_4
*278 PHY_5
*279 PHY_6
*280 PHY_7
*281 PHY_8
*282 PHY_9
*283 TAP_28
*284 TAP_29
*285 TAP_30
*286 TAP_31
*287 TAP_32
*288 TAP_33
*289 TAP_34
*290 TAP_35
*291 TAP_36
*292 TAP_37
*293 TAP_38
*294 TAP_39
*295 TAP_40
*296 TAP_41
*297 TAP_42
*298 TAP_43
*299 TAP_44
*300 TAP_45
*301 TAP_46
*302 TAP_47
*303 TAP_48
*304 TAP_49
*305 TAP_50
*306 TAP_51
*307 _028_
*308 _029_
*309 _030_
*310 _031_
*311 _032_
*312 _033_
*313 _034_
*314 _035_
*315 _036_
*316 _037_
*317 _038_
*318 _039_
*319 _040_
*320 _041_
*321 _042_
*322 _043_
*323 _044_
*324 _045_
*325 _046_
*326 _047_
*327 _048_
*328 _049_
*329 _050_
*330 _051_
*331 _052_
*332 _053_
*333 _054_
*334 _055_
*335 _056_
*336 _057_
*337 _058_
*338 _059_
*339 _060_
*340 _061_
*341 _062_
*342 _063_
*343 _064_
*344 _065_
*345 _066_
*346 _067_
*347 _068_
*348 _069_
*349 _070_
*350 _071_
*351 _076_
*352 _077_
*353 _078_
*354 _079_
*355 _080_
*356 _081_
*357 _082_
*358 _083_
*359 _084_
*360 _085_
*361 _086_
*362 _087_
*363 _088_
*364 _089_
*365 _090_
*366 _091_
*367 _092_
*368 _093_
*369 _093__43
*370 _094_
*371 _094__44
*372 _095_
*373 _096_
*374 _097_
*375 _098_
*376 _098__45
*377 _099_
*378 _100_
*379 _101_
*380 _102_
*381 _103_
*382 _103__46
*383 _104_
*384 _105_
*385 clkbuf_0_prog_clk
*386 clkbuf_1_0__f_prog_clk
*387 clkbuf_1_1__f_prog_clk
*388 hold1
*389 hold2
*390 hold3
*391 hold4
*392 hold5
*393 hold6
*394 hold7
*395 input1
*396 input10
*397 input11
*398 input12
*399 input13
*400 input14
*401 input15
*402 input16
*403 input17
*404 input18
*405 input19
*406 input2
*407 input20
*408 input21
*409 input22
*410 input23
*411 input3
*412 input4
*413 input5
*414 input6
*415 input7
*416 input8
*417 input9
*418 output24
*419 output25
*420 output26
*421 output27
*422 output28
*423 output29
*424 output30
*425 output31
*426 output32
*427 output33
*428 output34
*429 output35
*430 output36
*431 output37
*432 output38
*433 output39
*434 output40
*435 output41
*436 output42

*PORTS
bottom_left_grid_right_width_0_height_0_subtile_0__pin_inpad_0_ I
bottom_right_grid_left_width_0_height_0_subtile_0__pin_O_1_ I
ccff_head I
ccff_tail O
chanx_right_in[0] I
chanx_right_in[1] I
chanx_right_in[2] I
chanx_right_in[3] I
chanx_right_in[4] I
chanx_right_in[5] I
chanx_right_in[6] I
chanx_right_in[7] I
chanx_right_in[8] I
chanx_right_out[0] O
chanx_right_out[1] O
chanx_right_out[2] O
chanx_right_out[3] O
chanx_right_out[4] O
chanx_right_out[5] O
chanx_right_out[6] O
chanx_right_out[7] O
chanx_right_out[8] O
chany_bottom_in[0] I
chany_bottom_in[1] I
chany_bottom_in[2] I
chany_bottom_in[3] I
chany_bottom_in[4] I
chany_bottom_in[5] I
chany_bottom_in[6] I
chany_bottom_in[7] I
chany_bottom_in[8] I
chany_bottom_out[0] O
chany_bottom_out[1] O
chany_bottom_out[2] O
chany_bottom_out[3] O
chany_bottom_out[4] O
chany_bottom_out[5] O
chany_bottom_out[6] O
chany_bottom_out[7] O
chany_bottom_out[8] O
prog_clk I
right_bottom_grid_top_width_0_height_0_subtile_0__pin_O_2_ I
right_top_grid_bottom_width_0_height_0_subtile_0__pin_inpad_0_ I

*D_NET *1 0.00166434
*CONN
*P bottom_left_grid_right_width_0_height_0_subtile_0__pin_inpad_0_ I
*I *395:A I *D sky130_fd_sc_hd__clkbuf_1
*CAP
1 bottom_left_grid_right_width_0_height_0_subtile_0__pin_inpad_0_ 0.000832171
2 *395:A 0
3 *1:9 0.000832171
4 *1:9 chany_bottom_out[0] 0
5 *1:9 *23:15 0
6 *1:9 *33:10 0
7 *1:9 *75:44 0
8 *1:9 *81:8 0
9 *1:9 *96:10 0
10 *1:9 *147:32 0
*RES
1 bottom_left_grid_right_width_0_height_0_subtile_0__pin_inpad_0_ *1:9 32.3379 
2 *1:9 *395:A 23 
*END

*D_NET *2 0.00255583
*CONN
*P bottom_right_grid_left_width_0_height_0_subtile_0__pin_O_1_ I
*I *406:A I *D sky130_fd_sc_hd__buf_1
*CAP
1 bottom_right_grid_left_width_0_height_0_subtile_0__pin_O_1_ 0.00102028
2 *406:A 0
3 *2:11 0.00102028
4 *2:11 *377:Z 4.20168e-05
5 *2:11 *7:15 0
6 *2:11 *8:19 6.00355e-05
7 *2:11 *31:15 0
8 *2:11 *63:24 0
9 *2:11 *74:39 0.000144278
10 *2:11 *89:6 0.000263022
11 *2:11 *107:6 5.90675e-06
*RES
1 bottom_right_grid_left_width_0_height_0_subtile_0__pin_O_1_ *2:11 34.9479 
2 *2:11 *406:A 23 
*END

*D_NET *3 0.00458504
*CONN
*P ccff_head I
*I *411:A I *D sky130_fd_sc_hd__clkbuf_1
*CAP
1 ccff_head 0.00174616
2 *411:A 0
3 *3:23 0.00174616
4 *3:23 ccff_tail 0.000142647
5 *3:23 *344:D 0.00016927
6 *3:23 *409:A 0
7 *3:23 *11:25 0
8 *3:23 *12:21 0
9 *3:23 *13:15 5.12394e-05
10 *3:23 *73:40 2.31209e-05
11 *3:23 *75:24 0
12 *3:23 *94:23 8.22421e-06
13 *3:23 *112:42 0.000522656
14 *3:23 *137:10 7.87243e-05
15 *3:23 *143:10 9.68342e-05
*RES
1 ccff_head *3:23 38.7727 
2 *3:23 *411:A 23 
*END

*D_NET *4 0.000734918
*CONN
*P ccff_tail O
*I *418:X O *D sky130_fd_sc_hd__buf_2
*CAP
1 ccff_tail 0.000265849
2 *418:X 0.000265849
3 ccff_tail chanx_right_out[0] 0
4 ccff_tail *409:A 3.7924e-05
5 ccff_tail *13:15 2.26497e-05
6 ccff_tail *57:8 0
7 *3:23 ccff_tail 0.000142647
*RES
1 *418:X ccff_tail 47.1648 
*END

*D_NET *5 0.00656852
*CONN
*P chanx_right_in[0] I
*I *412:A I *D sky130_fd_sc_hd__buf_1
*CAP
1 chanx_right_in[0] 0.00130877
2 *412:A 0.000165546
3 *5:15 0.00147432
4 *412:A *49:10 7.53025e-05
5 *412:A *86:14 0.000615723
6 *412:A *107:10 0.000840157
7 *5:15 *6:15 3.91434e-05
8 *5:15 *7:15 0
9 *5:15 *8:19 0
10 *5:15 *29:15 2.25854e-05
11 *5:15 *31:15 0
12 *5:15 *43:15 0.00141855
13 *5:15 *49:10 0.000139569
14 *5:15 *75:32 0
15 *5:15 *105:8 0.000185428
16 *5:15 *107:10 0.000201193
17 *5:15 *146:8 8.22243e-05
*RES
1 chanx_right_in[0] *5:15 42.2562 
2 *5:15 *412:A 32.1971 
*END

*D_NET *6 0.00351707
*CONN
*P chanx_right_in[1] I
*I *413:A I *D sky130_fd_sc_hd__clkbuf_1
*CAP
1 chanx_right_in[1] 0.00142111
2 *413:A 0
3 *6:15 0.00142111
4 *6:15 *378:TE_B 0.000273267
5 *6:15 *389:A 0.00030373
6 *6:15 *7:15 3.58169e-05
7 *6:15 *74:31 2.28916e-05
8 *6:15 *90:12 0
9 *6:15 *98:14 0
10 *5:15 *6:15 3.91434e-05
*RES
1 chanx_right_in[1] *6:15 47.7373 
2 *6:15 *413:A 23 
*END

*D_NET *7 0.00222871
*CONN
*P chanx_right_in[2] I
*I *414:A I *D sky130_fd_sc_hd__clkbuf_1
*CAP
1 chanx_right_in[2] 0.000818263
2 *414:A 0
3 *7:15 0.000818263
4 *7:15 *379:TE_B 0.000113116
5 *7:15 *8:19 0.000224235
6 *7:15 *56:12 0
7 *7:15 *83:18 0.000111484
8 *7:15 *90:12 5.08201e-05
9 *7:15 *98:14 5.67058e-05
10 *2:11 *7:15 0
11 *5:15 *7:15 0
12 *6:15 *7:15 3.58169e-05
*RES
1 chanx_right_in[2] *7:15 36.7768 
2 *7:15 *414:A 23 
*END

*D_NET *8 0.00348491
*CONN
*P chanx_right_in[3] I
*I *415:A I *D sky130_fd_sc_hd__clkbuf_1
*CAP
1 chanx_right_in[3] 0.00121947
2 *415:A 0
3 *8:19 0.00121947
4 *8:19 *9:21 0.000282281
5 *8:19 *10:19 0
6 *8:19 *29:15 0
7 *8:19 *30:9 2.11066e-05
8 *8:19 *31:15 0.000198233
9 *8:19 *81:26 0
10 *8:19 *105:8 0.000100803
11 *8:19 *107:10 0.000126806
12 *8:19 *108:20 9.81333e-06
13 *8:19 *147:18 2.26497e-05
14 *2:11 *8:19 6.00355e-05
15 *5:15 *8:19 0
16 *7:15 *8:19 0.000224235
*RES
1 chanx_right_in[3] *8:19 34.1613 
2 *8:19 *415:A 23 
*END

*D_NET *9 0.00345559
*CONN
*P chanx_right_in[4] I
*I *416:A I *D sky130_fd_sc_hd__clkbuf_1
*CAP
1 chanx_right_in[4] 0.00131676
2 *416:A 0
3 *9:21 0.00131676
4 *9:21 *10:19 0.000435221
5 *9:21 *56:12 2.32177e-05
6 *9:21 *108:20 8.13519e-05
7 *8:19 *9:21 0.000282281
*RES
1 chanx_right_in[4] *9:21 43.4408 
2 *9:21 *416:A 23 
*END

*D_NET *10 0.0104263
*CONN
*P chanx_right_in[5] I
*I *417:A I *D sky130_fd_sc_hd__clkbuf_1
*CAP
1 chanx_right_in[5] 0.00319905
2 *417:A 9.9657e-05
3 *10:19 0.00329871
4 *417:A *49:10 0.000159521
5 *417:A *85:6 5.50049e-05
6 *417:A *86:14 0.000100061
7 *417:A *107:10 0.000448183
8 *10:19 *347:D 0.000104189
9 *10:19 *349:CLK 2.17538e-05
10 *10:19 *11:25 0
11 *10:19 *12:21 0
12 *10:19 *26:11 0
13 *10:19 *27:15 3.92827e-05
14 *10:19 *30:15 2.05503e-05
15 *10:19 *31:15 0
16 *10:19 *71:10 0.000107212
17 *10:19 *71:48 2.69098e-05
18 *10:19 *74:18 0.00090731
19 *10:19 *97:16 9.25823e-05
20 *10:19 *103:30 0.000106911
21 *10:19 *108:20 0.000130862
22 *10:19 *140:18 0.000370875
23 *10:19 *147:32 0.00070242
24 *8:19 *10:19 0
25 *9:21 *10:19 0.000435221
*RES
1 chanx_right_in[5] *10:19 35.3795 
2 *10:19 *417:A 42.9093 
*END

*D_NET *11 0.0100016
*CONN
*P chanx_right_in[6] I
*I *396:A I *D sky130_fd_sc_hd__clkbuf_1
*CAP
1 chanx_right_in[6] 0.00297696
2 *396:A 0
3 *11:33 0.000232242
4 *11:25 0.00320921
5 *11:25 *381:TE_B 2.93276e-05
6 *11:25 *12:21 7.15426e-05
7 *11:25 *25:21 3.3577e-05
8 *11:25 *46:8 0.000415832
9 *11:25 *67:14 2.18926e-05
10 *11:25 *75:24 0.00105598
11 *11:25 *83:32 8.02283e-05
12 *11:25 *87:24 0.00056871
13 *11:25 *112:8 2.05503e-05
14 *11:25 *112:26 2.07026e-05
15 *11:25 *140:18 0.000172218
16 *11:25 *145:36 0.000446002
17 *11:33 *25:21 8.76957e-05
18 *11:33 *26:11 9.41704e-05
19 *11:33 *47:10 0.000138145
20 *11:33 *97:6 5.37348e-06
21 *11:33 *109:12 9.9699e-06
22 *11:33 *109:16 0.000123889
23 *11:33 *146:22 0.000187414
24 *3:23 *11:25 0
25 *10:19 *11:25 0
*RES
1 chanx_right_in[6] *11:25 42.9428 
2 *11:25 *11:33 35.8207 
3 *11:33 *396:A 23 
*END

*D_NET *12 0.00242874
*CONN
*P chanx_right_in[7] I
*I *397:A I *D sky130_fd_sc_hd__clkbuf_1
*CAP
1 chanx_right_in[7] 0.000879905
2 *397:A 0
3 *12:21 0.000879905
4 *12:21 *312:A 5.8697e-05
5 *12:21 *366:A 0.000183171
6 *12:21 *366:TE_B 0.00011418
7 *12:21 *13:15 0.000128987
8 *12:21 *65:10 0.000100069
9 *12:21 *98:14 1.22803e-05
10 *3:23 *12:21 0
11 *10:19 *12:21 0
12 *11:25 *12:21 7.15426e-05
*RES
1 chanx_right_in[7] *12:21 33.3315 
2 *12:21 *397:A 23 
*END

*D_NET *13 0.00267644
*CONN
*P chanx_right_in[8] I
*I *398:A I *D sky130_fd_sc_hd__clkbuf_1
*CAP
1 chanx_right_in[8] 0.00104588
2 *398:A 0
3 *13:15 0.00104588
4 *13:15 chanx_right_out[0] 2.26497e-05
5 *13:15 *333:A 4.344e-05
6 *13:15 *366:Z 0
7 *13:15 *409:A 0
8 *13:15 *57:8 0
9 *13:15 *98:14 0.000158296
10 *13:15 *113:10 0.000102633
11 *13:15 *114:10 5.47808e-05
12 ccff_tail *13:15 2.26497e-05
13 *3:23 *13:15 5.12394e-05
14 *12:21 *13:15 0.000128987
*RES
1 chanx_right_in[8] *13:15 40.5054 
2 *13:15 *398:A 23 
*END

*D_NET *14 0.000783614
*CONN
*P chanx_right_out[0] O
*I *419:X O *D sky130_fd_sc_hd__buf_2
*CAP
1 chanx_right_out[0] 0.00031124
2 *419:X 0.00031124
3 chanx_right_out[0] chanx_right_out[1] 5.81299e-05
4 chanx_right_out[0] *409:A 6.76129e-05
5 chanx_right_out[0] *113:10 1.27424e-05
6 ccff_tail chanx_right_out[0] 0
7 *13:15 chanx_right_out[0] 2.26497e-05
*RES
1 *419:X chanx_right_out[0] 47.1648 
*END

*D_NET *15 0.00091853
*CONN
*P chanx_right_out[1] O
*I *420:X O *D sky130_fd_sc_hd__buf_2
*CAP
1 chanx_right_out[1] 0.000358979
2 *420:X 0.000358979
3 chanx_right_out[1] chanx_right_out[2] 0.000128987
4 chanx_right_out[1] chanx_right_out[3] 0
5 chanx_right_out[1] *409:A 0
6 chanx_right_out[1] *114:10 1.34542e-05
7 chanx_right_out[0] chanx_right_out[1] 5.81299e-05
*RES
1 *420:X chanx_right_out[1] 48.1043 
*END

*D_NET *16 0.000817167
*CONN
*P chanx_right_out[2] O
*I *421:X O *D sky130_fd_sc_hd__clkbuf_4
*CAP
1 chanx_right_out[2] 0.000249958
2 *421:X 0.000249958
3 chanx_right_out[2] chanx_right_out[3] 0.000174332
4 chanx_right_out[2] *17:12 1.39317e-05
5 chanx_right_out[2] *117:8 0
6 chanx_right_out[1] chanx_right_out[2] 0.000128987
*RES
1 *421:X chanx_right_out[2] 47.7004 
*END

*D_NET *17 0.00146949
*CONN
*P chanx_right_out[3] O
*I *422:X O *D sky130_fd_sc_hd__buf_2
*CAP
1 chanx_right_out[3] 0.000303017
2 *422:X 0.000267916
3 *17:12 0.000570934
4 chanx_right_out[3] chanx_right_out[4] 0
5 chanx_right_out[3] *19:18 0
6 *17:12 *115:14 0.000139357
7 chanx_right_out[1] chanx_right_out[3] 0
8 chanx_right_out[2] chanx_right_out[3] 0.000174332
9 chanx_right_out[2] *17:12 1.39317e-05
*RES
1 *422:X *17:12 42.7746 
2 *17:12 chanx_right_out[3] 8.98187 
*END

*D_NET *18 0.00107066
*CONN
*P chanx_right_out[4] O
*I *423:X O *D sky130_fd_sc_hd__buf_2
*CAP
1 chanx_right_out[4] 0.000369748
2 *423:X 0.000369748
3 chanx_right_out[4] *19:18 0.000256546
4 chanx_right_out[4] *121:12 7.46212e-05
5 chanx_right_out[3] chanx_right_out[4] 0
*RES
1 *423:X chanx_right_out[4] 48.0408 
*END

*D_NET *19 0.00228068
*CONN
*P chanx_right_out[5] O
*I *424:X O *D sky130_fd_sc_hd__clkbuf_4
*CAP
1 chanx_right_out[5] 4.8641e-05
2 *424:X 0.000927969
3 *19:18 0.00097661
4 *19:18 chanx_right_out[6] 7.64847e-06
5 *19:18 *119:10 6.32694e-05
6 chanx_right_out[3] *19:18 0
7 chanx_right_out[4] *19:18 0.000256546
*RES
1 *424:X *19:18 49.9857 
2 *19:18 chanx_right_out[5] 0.214667 
*END

*D_NET *20 0.00201463
*CONN
*P chanx_right_out[6] O
*I *425:X O *D sky130_fd_sc_hd__clkbuf_4
*CAP
1 chanx_right_out[6] 0.000316188
2 *425:X 0.000346
3 *20:12 0.000662188
4 chanx_right_out[6] chanx_right_out[7] 0.000118921
5 chanx_right_out[6] chanx_right_out[8] 0
6 *20:12 *21:10 0
7 *20:12 *22:10 0.000294754
8 *20:12 *121:6 0.000100803
9 *20:12 *121:12 0.000168129
10 *20:12 *122:8 0
11 *19:18 chanx_right_out[6] 7.64847e-06
*RES
1 *425:X *20:12 46.3789 
2 *20:12 chanx_right_out[6] 9.10133 
*END

*D_NET *21 0.0012063
*CONN
*P chanx_right_out[7] O
*I *426:X O *D sky130_fd_sc_hd__clkbuf_4
*CAP
1 chanx_right_out[7] 0.000109971
2 *426:X 0.000374255
3 *21:10 0.000484226
4 chanx_right_out[7] chanx_right_out[8] 0.000118921
5 *21:10 *22:10 0
6 chanx_right_out[6] chanx_right_out[7] 0.000118921
7 *20:12 *21:10 0
*RES
1 *426:X *21:10 45.2811 
2 *21:10 chanx_right_out[7] 8.75787 
*END

*D_NET *22 0.00188688
*CONN
*P chanx_right_out[8] O
*I *427:X O *D sky130_fd_sc_hd__clkbuf_4
*CAP
1 chanx_right_out[8] 0.000301174
2 *427:X 0.000435426
3 *22:10 0.0007366
4 chanx_right_out[6] chanx_right_out[8] 0
5 chanx_right_out[7] chanx_right_out[8] 0.000118921
6 *20:12 *22:10 0.000294754
7 *21:10 *22:10 0
*RES
1 *427:X *22:10 48.0982 
2 *22:10 chanx_right_out[8] 9.27307 
*END

*D_NET *23 0.00280506
*CONN
*P chany_bottom_in[0] I
*I *399:A I *D sky130_fd_sc_hd__clkbuf_1
*CAP
1 chany_bottom_in[0] 0.000743643
2 *399:A 0
3 *23:15 0.000743643
4 *23:15 *339:A 9.53106e-05
5 *23:15 *24:21 0.000771378
6 *23:15 *75:44 6.78567e-05
7 *23:15 *76:33 0.000123666
8 *23:15 *96:10 0.000143024
9 *23:15 *124:10 2.45549e-06
10 *23:15 *130:14 0.000114083
11 *1:9 *23:15 0
*RES
1 chany_bottom_in[0] *23:15 34.2021 
2 *23:15 *399:A 23 
*END

*D_NET *24 0.00386053
*CONN
*P chany_bottom_in[1] I
*I *400:A I *D sky130_fd_sc_hd__buf_1
*CAP
1 chany_bottom_in[1] 0.00108381
2 *400:A 0
3 *24:21 0.00108381
4 *24:21 *25:21 0
5 *24:21 *31:15 0
6 *24:21 *83:32 1.50307e-05
7 *24:21 *100:16 0
8 *24:21 *101:6 2.81066e-05
9 *24:21 *109:12 0
10 *24:21 *128:12 0.000277695
11 *24:21 *130:14 0.000424116
12 *24:21 *140:18 0.000176578
13 *24:21 *148:8 0
14 *23:15 *24:21 0.000771378
*RES
1 chany_bottom_in[1] *24:21 43.1093 
2 *24:21 *400:A 23 
*END

*D_NET *25 0.00337077
*CONN
*P chany_bottom_in[2] I
*I *401:A I *D sky130_fd_sc_hd__buf_1
*CAP
1 chany_bottom_in[2] 0.00122243
2 *401:A 0
3 *25:21 0.00122243
4 *25:21 *364:A 5.3304e-05
5 *25:21 *26:11 0
6 *25:21 *30:15 0
7 *25:21 *31:15 0
8 *25:21 *47:10 0.000138145
9 *25:21 *63:14 0
10 *25:21 *66:12 0.00032546
11 *25:21 *76:10 0
12 *25:21 *76:46 0
13 *25:21 *104:12 0
14 *25:21 *109:16 2.11564e-05
15 *25:21 *146:22 0.000266578
16 *11:25 *25:21 3.3577e-05
17 *11:33 *25:21 8.76957e-05
18 *24:21 *25:21 0
*RES
1 chany_bottom_in[2] *25:21 41.1207 
2 *25:21 *401:A 23 
*END

*D_NET *26 0.00378027
*CONN
*P chany_bottom_in[3] I
*I *402:A I *D sky130_fd_sc_hd__buf_1
*CAP
1 chany_bottom_in[3] 0.00109712
2 *402:A 0
3 *26:11 0.00109712
4 *26:11 *314:A 0.000445148
5 *26:11 *315:A 0.000136738
6 *26:11 *349:CLK 0
7 *26:11 *384:TE_B 0.000311232
8 *26:11 *428:A 3.23857e-06
9 *26:11 *27:15 1.01436e-05
10 *26:11 *41:19 0
11 *26:11 *47:10 0.000264275
12 *26:11 *63:14 5.3304e-05
13 *26:11 *71:10 0
14 *26:11 *74:18 4.82745e-05
15 *26:11 *76:10 0.000102389
16 *26:11 *97:6 3.65466e-05
17 *26:11 *103:16 1.59094e-05
18 *26:11 *129:12 6.46634e-05
19 *10:19 *26:11 0
20 *11:33 *26:11 9.41704e-05
21 *25:21 *26:11 0
*RES
1 chany_bottom_in[3] *26:11 38.345 
2 *26:11 *402:A 23 
*END

*D_NET *27 0.00389179
*CONN
*P chany_bottom_in[4] I
*I *403:A I *D sky130_fd_sc_hd__clkbuf_1
*CAP
1 chany_bottom_in[4] 0.000946421
2 *403:A 0.000423771
3 *27:15 0.00137019
4 *403:A *339:A 1.22822e-05
5 *403:A *349:CLK 0.000127341
6 *403:A *349:D 5.90084e-05
7 *403:A *76:33 0.000103405
8 *403:A *76:46 4.79641e-05
9 *27:15 *349:CLK 0
10 *27:15 *350:D 0.000297308
11 *27:15 *383:A 2.9017e-05
12 *27:15 *384:TE_B 5.48512e-05
13 *27:15 *404:A 0
14 *27:15 *71:20 9.17998e-05
15 *27:15 *86:14 5.41369e-05
16 *27:15 *97:6 7.63484e-05
17 *27:15 *97:16 3.36488e-05
18 *27:15 *108:10 9.21981e-05
19 *27:15 *129:12 2.26663e-05
20 *10:19 *27:15 3.92827e-05
21 *26:11 *27:15 1.01436e-05
*RES
1 chany_bottom_in[4] *27:15 48.3529 
2 *27:15 *403:A 45.4779 
*END

*D_NET *28 0.0011071
*CONN
*P chany_bottom_in[5] I
*I *404:A I *D sky130_fd_sc_hd__clkbuf_1
*CAP
1 chany_bottom_in[5] 0.00048615
2 *404:A 0.00048615
3 *404:A *43:15 0
4 *404:A *70:12 4.77164e-06
5 *404:A *75:32 0.000130024
6 *404:A *108:10 0
7 *27:15 *404:A 0
*RES
1 chany_bottom_in[5] *404:A 47.3214 
*END

*D_NET *29 0.00113055
*CONN
*P chany_bottom_in[6] I
*I *405:A I *D sky130_fd_sc_hd__clkbuf_1
*CAP
1 chany_bottom_in[6] 0.000553984
2 *405:A 0
3 *29:15 0.000553984
4 *29:15 *30:9 0
5 *29:15 *146:8 0
6 *5:15 *29:15 2.25854e-05
7 *8:19 *29:15 0
*RES
1 chany_bottom_in[6] *29:15 27.1179 
2 *29:15 *405:A 23 
*END

*D_NET *30 0.00494951
*CONN
*P chany_bottom_in[7] I
*I *407:A I *D sky130_fd_sc_hd__buf_1
*CAP
1 chany_bottom_in[7] 0.000947313
2 *407:A 0
3 *30:15 0.000109446
4 *30:9 0.00105676
5 *30:9 *31:15 0
6 *30:9 *63:18 0.00110473
7 *30:9 *81:26 1.76557e-05
8 *30:9 *146:12 0.00151231
9 *30:15 *63:14 0.000159646
10 *8:19 *30:9 2.11066e-05
11 *10:19 *30:15 2.05503e-05
12 *25:21 *30:15 0
13 *29:15 *30:9 0
*RES
1 chany_bottom_in[7] *30:9 44.1243 
2 *30:9 *30:15 32.2579 
3 *30:15 *407:A 23 
*END

*D_NET *31 0.00650852
*CONN
*P chany_bottom_in[8] I
*I *408:A I *D sky130_fd_sc_hd__buf_1
*CAP
1 chany_bottom_in[8] 0.00263414
2 *408:A 0
3 *31:15 0.00263414
4 *31:15 *41:19 0.000878577
5 *31:15 *108:20 0
6 *31:15 *146:22 0
7 *31:15 *147:18 0.000163433
8 *31:15 *147:32 0
9 *2:11 *31:15 0
10 *5:15 *31:15 0
11 *8:19 *31:15 0.000198233
12 *10:19 *31:15 0
13 *24:21 *31:15 0
14 *25:21 *31:15 0
15 *30:9 *31:15 0
*RES
1 chany_bottom_in[8] *31:15 46.1693 
2 *31:15 *408:A 23 
*END

*D_NET *32 0.000703526
*CONN
*P chany_bottom_out[0] O
*I *428:X O *D sky130_fd_sc_hd__clkbuf_4
*CAP
1 chany_bottom_out[0] 0.000335587
2 *428:X 0.000335587
3 chany_bottom_out[0] chany_bottom_out[1] 0
4 chany_bottom_out[0] *41:19 0
5 chany_bottom_out[0] *147:32 3.23515e-05
6 *1:9 chany_bottom_out[0] 0
*RES
1 *428:X chany_bottom_out[0] 48.108 
*END

*D_NET *33 0.000787414
*CONN
*P chany_bottom_out[1] O
*I *429:X O *D sky130_fd_sc_hd__clkbuf_4
*CAP
1 chany_bottom_out[1] 9.64208e-05
2 *429:X 0.000297286
3 *33:10 0.000393707
4 chany_bottom_out[1] chany_bottom_out[2] 0
5 *33:10 *147:32 0
6 chany_bottom_out[0] chany_bottom_out[1] 0
7 *1:9 *33:10 0
*RES
1 *429:X *33:10 42.7332 
2 *33:10 chany_bottom_out[1] 8.32853 
*END

*D_NET *34 0.00077553
*CONN
*P chany_bottom_out[2] O
*I *430:X O *D sky130_fd_sc_hd__clkbuf_4
*CAP
1 chany_bottom_out[2] 8.56082e-05
2 *430:X 0.000302157
3 *34:10 0.000387765
4 chany_bottom_out[2] chany_bottom_out[3] 0
5 *34:10 *147:32 0
6 chany_bottom_out[1] chany_bottom_out[2] 0
*RES
1 *430:X *34:10 42.7332 
2 *34:10 chany_bottom_out[2] 8.32853 
*END

*D_NET *35 0.0007875
*CONN
*P chany_bottom_out[3] O
*I *431:X O *D sky130_fd_sc_hd__clkbuf_4
*CAP
1 chany_bottom_out[3] 9.15931e-05
2 *431:X 0.000302157
3 *35:10 0.00039375
4 chany_bottom_out[3] chany_bottom_out[4] 0
5 *35:10 *126:10 0
6 chany_bottom_out[2] chany_bottom_out[3] 0
*RES
1 *431:X *35:10 42.7332 
2 *35:10 chany_bottom_out[3] 8.32853 
*END

*D_NET *36 0.000681199
*CONN
*P chany_bottom_out[4] O
*I *432:X O *D sky130_fd_sc_hd__clkbuf_4
*CAP
1 chany_bottom_out[4] 0.0003406
2 *432:X 0.0003406
3 chany_bottom_out[4] chany_bottom_out[5] 0
4 chany_bottom_out[4] *130:14 0
5 chany_bottom_out[3] chany_bottom_out[4] 0
*RES
1 *432:X chany_bottom_out[4] 48.5734 
*END

*D_NET *37 0.000750477
*CONN
*P chany_bottom_out[5] O
*I *433:X O *D sky130_fd_sc_hd__clkbuf_4
*CAP
1 chany_bottom_out[5] 0.000375239
2 *433:X 0.000375239
3 chany_bottom_out[5] chany_bottom_out[6] 0
4 chany_bottom_out[5] *130:14 0
5 chany_bottom_out[4] chany_bottom_out[5] 0
*RES
1 *433:X chany_bottom_out[5] 47.8268 
*END

*D_NET *38 0.00110236
*CONN
*P chany_bottom_out[6] O
*I *434:X O *D sky130_fd_sc_hd__clkbuf_4
*CAP
1 chany_bottom_out[6] 8.56082e-05
2 *434:X 0.000463715
3 *38:10 0.000549323
4 chany_bottom_out[6] chany_bottom_out[7] 0
5 *38:10 *39:12 0
6 *38:10 *130:14 3.7122e-06
7 chany_bottom_out[5] chany_bottom_out[6] 0
*RES
1 *434:X *38:10 44.6389 
2 *38:10 chany_bottom_out[6] 8.32853 
*END

*D_NET *39 0.00101988
*CONN
*P chany_bottom_out[7] O
*I *435:X O *D sky130_fd_sc_hd__clkbuf_4
*CAP
1 chany_bottom_out[7] 0.000219857
2 *435:X 0.000290083
3 *39:12 0.00050994
4 chany_bottom_out[7] chany_bottom_out[8] 0
5 *39:12 *130:14 0
6 chany_bottom_out[6] chany_bottom_out[7] 0
7 *38:10 *39:12 0
*RES
1 *435:X *39:12 49.575 
2 *39:12 chany_bottom_out[7] 0.843733 
*END

*D_NET *40 0.00188192
*CONN
*P chany_bottom_out[8] O
*I *436:X O *D sky130_fd_sc_hd__clkbuf_4
*CAP
1 chany_bottom_out[8] 0.000545075
2 *436:X 0.000395883
3 *40:8 0.000940959
4 chany_bottom_out[7] chany_bottom_out[8] 0
*RES
1 *436:X *40:8 46.4204 
2 *40:8 chany_bottom_out[8] 10.0459 
*END

*D_NET *41 0.00684677
*CONN
*P prog_clk I
*I *385:A I *D sky130_fd_sc_hd__clkbuf_16
*CAP
1 prog_clk 0.00178452
2 *385:A 0.000589934
3 *41:19 0.00237445
4 *385:A *142:6 9.4316e-05
5 *41:19 *63:14 0.000336627
6 *41:19 *69:8 0
7 *41:19 *76:10 0
8 *41:19 *76:46 1.51944e-05
9 *41:19 *87:24 5.10756e-05
10 *41:19 *104:12 0
11 *41:19 *112:26 6.95557e-05
12 *41:19 *129:12 0.000562676
13 *41:19 *129:16 8.98466e-05
14 *41:19 *147:32 0
15 chany_bottom_out[0] *41:19 0
16 *26:11 *41:19 0
17 *31:15 *41:19 0.000878577
*RES
1 prog_clk *41:19 44.5491 
2 *41:19 *385:A 30.7886 
*END

*D_NET *42 0.000778531
*CONN
*P right_bottom_grid_top_width_0_height_0_subtile_0__pin_O_2_ I
*I *409:A I *D sky130_fd_sc_hd__clkbuf_1
*CAP
1 right_bottom_grid_top_width_0_height_0_subtile_0__pin_O_2_ 0.000336497
2 *409:A 0.000336497
3 ccff_tail *409:A 3.7924e-05
4 chanx_right_out[0] *409:A 6.76129e-05
5 chanx_right_out[1] *409:A 0
6 *3:23 *409:A 0
7 *13:15 *409:A 0
*RES
1 right_bottom_grid_top_width_0_height_0_subtile_0__pin_O_2_ *409:A 49.0811 
*END

*D_NET *43 0.00409571
*CONN
*P right_top_grid_bottom_width_0_height_0_subtile_0__pin_inpad_0_ I
*I *410:A I *D sky130_fd_sc_hd__buf_1
*CAP
1 right_top_grid_bottom_width_0_height_0_subtile_0__pin_inpad_0_ 0.00131108
2 *410:A 0
3 *43:15 0.00131108
4 *43:15 *75:32 0
5 *43:15 *107:10 5.50049e-05
6 *404:A *43:15 0
7 *5:15 *43:15 0.00141855
*RES
1 right_top_grid_bottom_width_0_height_0_subtile_0__pin_inpad_0_ *43:15 40.5576 
2 *43:15 *410:A 23 
*END

*D_NET *46 0.000990786
*CONN
*I *309:A I *D sky130_fd_sc_hd__clkbuf_1
*I *308:X O *D sky130_fd_sc_hd__clkbuf_1
*CAP
1 *309:A 0
2 *308:X 0.000213757
3 *46:8 0.000213757
4 *46:8 *112:26 0.000147439
5 *11:25 *46:8 0.000415832
*RES
1 *308:X *46:8 28.7586 
2 *46:8 *309:A 23 
*END

*D_NET *47 0.00118203
*CONN
*I *311:A I *D sky130_fd_sc_hd__clkbuf_1
*I *310:X O *D sky130_fd_sc_hd__clkbuf_1
*CAP
1 *311:A 0
2 *310:X 0.000317643
3 *47:10 0.000317643
4 *47:10 *76:33 6.17437e-06
5 *11:33 *47:10 0.000138145
6 *25:21 *47:10 0.000138145
7 *26:11 *47:10 0.000264275
*RES
1 *310:X *47:10 43.3857 
2 *47:10 *311:A 38 
*END

*D_NET *48 0.000396538
*CONN
*I *315:A I *D sky130_fd_sc_hd__buf_1
*I *314:X O *D sky130_fd_sc_hd__clkbuf_1
*CAP
1 *315:A 0.000107968
2 *314:X 0.000107968
3 *315:A *97:6 4.38638e-05
4 *26:11 *315:A 0.000136738
*RES
1 *314:X *315:A 48.4236 
*END

*D_NET *49 0.00575395
*CONN
*I *317:A I *D sky130_fd_sc_hd__clkbuf_1
*I *316:X O *D sky130_fd_sc_hd__clkbuf_1
*CAP
1 *317:A 0
2 *316:X 0.00135899
3 *49:16 0.000203305
4 *49:10 0.0015623
5 *49:10 *341:A 2.93747e-05
6 *49:10 *71:10 0.000100803
7 *49:10 *85:6 0.000446768
8 *49:10 *86:14 0.000924918
9 *49:10 *105:8 0.00010018
10 *49:10 *107:10 8.48502e-06
11 *49:10 *129:12 0.00010018
12 *49:16 *75:32 4.37619e-05
13 *49:16 *83:32 0.000164477
14 *49:16 *111:12 0.00033602
15 *412:A *49:10 7.53025e-05
16 *417:A *49:10 0.000159521
17 *5:15 *49:10 0.000139569
*RES
1 *316:X *49:10 49.5143 
2 *49:10 *49:16 34.7229 
3 *49:16 *317:A 23 
*END

*D_NET *50 0.000222067
*CONN
*I *321:A I *D sky130_fd_sc_hd__clkbuf_1
*I *320:X O *D sky130_fd_sc_hd__clkbuf_1
*CAP
1 *321:A 0.000111033
2 *320:X 0.000111033
*RES
1 *320:X *321:A 47.9471 
*END

*D_NET *51 0.000674652
*CONN
*I *323:A I *D sky130_fd_sc_hd__clkbuf_1
*I *322:X O *D sky130_fd_sc_hd__clkbuf_1
*CAP
1 *323:A 0.000192687
2 *322:X 7.61995e-05
3 *51:8 0.000268886