*SPEF "ieee 1481-1999"
*DESIGN "sb_1__10_"
*DATE "11:11:11 Fri 11 11, 1111"
*VENDOR "OpenRCX"
*PROGRAM "Parallel Extraction"
*VERSION "1.0"
*DESIGN_FLOW "NAME_SCOPE LOCAL" "PIN_CAP NONE"
*DIVIDER /
*DELIMITER :
*BUS_DELIMITER []
*T_UNIT 1 NS
*C_UNIT 1 PF
*R_UNIT 1 OHM
*L_UNIT 1 HENRY

*NAME_MAP
*1 bottom_left_grid_right_width_0_height_0_subtile_0__pin_O_3_
*2 bottom_right_grid_left_width_0_height_0_subtile_0__pin_O_1_
*3 ccff_head
*4 ccff_tail
*5 chanx_left_in[0]
*6 chanx_left_in[1]
*7 chanx_left_in[2]
*8 chanx_left_in[3]
*9 chanx_left_in[4]
*10 chanx_left_in[5]
*11 chanx_left_in[6]
*12 chanx_left_in[7]
*13 chanx_left_in[8]
*14 chanx_left_out[0]
*15 chanx_left_out[1]
*16 chanx_left_out[2]
*17 chanx_left_out[3]
*18 chanx_left_out[4]
*19 chanx_left_out[5]
*20 chanx_left_out[6]
*21 chanx_left_out[7]
*22 chanx_left_out[8]
*23 chanx_right_in[0]
*24 chanx_right_in[1]
*25 chanx_right_in[2]
*26 chanx_right_in[3]
*27 chanx_right_in[4]
*28 chanx_right_in[5]
*29 chanx_right_in[6]
*30 chanx_right_in[7]
*31 chanx_right_in[8]
*32 chanx_right_out[0]
*33 chanx_right_out[1]
*34 chanx_right_out[2]
*35 chanx_right_out[3]
*36 chanx_right_out[4]
*37 chanx_right_out[5]
*38 chanx_right_out[6]
*39 chanx_right_out[7]
*40 chanx_right_out[8]
*41 chany_bottom_in[0]
*42 chany_bottom_in[1]
*43 chany_bottom_in[2]
*44 chany_bottom_in[3]
*45 chany_bottom_in[4]
*46 chany_bottom_in[5]
*47 chany_bottom_in[6]
*48 chany_bottom_in[7]
*49 chany_bottom_in[8]
*50 chany_bottom_out[0]
*51 chany_bottom_out[1]
*52 chany_bottom_out[2]
*53 chany_bottom_out[3]
*54 chany_bottom_out[4]
*55 chany_bottom_out[5]
*56 chany_bottom_out[6]
*57 chany_bottom_out[7]
*58 chany_bottom_out[8]
*59 left_bottom_grid_top_width_0_height_0_subtile_0__pin_O_2_
*60 left_top_grid_bottom_width_0_height_0_subtile_0__pin_inpad_0_
*61 prog_clk
*62 right_bottom_grid_top_width_0_height_0_subtile_0__pin_O_2_
*63 right_top_grid_bottom_width_0_height_0_subtile_0__pin_inpad_0_
*66 _000_
*67 _001_
*68 _002_
*69 _003_
*70 _004_
*71 _005_
*72 _006_
*73 _007_
*74 _008_
*75 _009_
*76 _010_
*77 _011_
*78 _012_
*79 _013_
*80 _014_
*81 _015_
*82 _016_
*83 _017_
*84 _018_
*85 _019_
*86 _020_
*87 _021_
*88 _022_
*89 _023_
*90 _024_
*91 _025_
*92 _026_
*93 _027_
*94 _028_
*95 _029_
*96 _030_
*97 _031_
*98 _032_
*99 _033_
*100 _034_
*101 _035_
*102 _036_
*103 _037_
*104 _038_
*105 _039_
*106 _040_
*107 _041_
*108 _042_
*109 _043_
*110 _044_
*111 _045_
*112 _046_
*113 _047_
*114 _048_
*115 _049_
*116 _050_
*117 _051_
*118 _052_
*119 _053_
*120 _054_
*121 _055_
*122 _056_
*123 _057_
*124 _058_
*125 _059_
*126 _060_
*127 _061_
*128 _062_
*129 _063_
*130 _064_
*131 _065_
*132 _066_
*133 _067_
*134 _068_
*135 _069_
*136 _070_
*137 _071_
*138 _072_
*139 _073_
*140 _074_
*141 _075_
*142 _076_
*143 _077_
*144 _078_
*145 _079_
*146 _080_
*147 _081_
*148 _082_
*149 _083_
*150 _084_
*151 _085_
*152 _086_
*153 _087_
*154 _088_
*155 _089_
*156 _090_
*157 _091_
*158 _092_
*159 _093_
*160 _094_
*161 _095_
*162 _096_
*163 _097_
*164 _098_
*165 _099_
*166 _100_
*167 _101_
*168 _102_
*169 _103_
*170 _104_
*171 _105_
*172 _106_
*173 _107_
*174 _108_
*175 _109_
*176 _110_
*177 _111_
*178 _112_
*179 _113_
*180 _114_
*181 _115_
*182 _116_
*183 _117_
*184 _118_
*185 _119_
*186 _120_
*187 _121_
*188 _122_
*189 _123_
*190 _124_
*191 _125_
*192 _126_
*193 _127_
*194 _128_
*195 _129_
*196 _130_
*197 _131_
*198 _132_
*199 _133_
*200 _134_
*201 _135_
*202 _136_
*203 _137_
*204 _138_
*205 _139_
*206 _140_
*207 _141_
*208 _142_
*209 _143_
*210 _144_
*211 _145_
*212 _146_
*213 _147_
*214 _148_
*215 _149_
*216 _150_
*217 _151_
*218 _152_
*219 _153_
*220 _154_
*221 _155_
*222 _156_
*223 _157_
*224 _158_
*225 _159_
*226 _160_
*227 _161_
*228 clknet_0_prog_clk
*229 clknet_2_0__leaf_prog_clk
*230 clknet_2_1__leaf_prog_clk
*231 clknet_2_2__leaf_prog_clk
*232 clknet_2_3__leaf_prog_clk
*233 mem_bottom_track_1\.DFF_0_\.D
*234 mem_bottom_track_1\.DFF_0_\.Q
*235 mem_bottom_track_1\.DFF_1_\.Q
*236 mem_bottom_track_11\.DFF_0_\.D
*237 mem_bottom_track_11\.DFF_0_\.Q
*238 mem_bottom_track_11\.DFF_1_\.Q
*239 mem_bottom_track_13\.DFF_0_\.Q
*240 mem_bottom_track_13\.DFF_1_\.Q
*241 mem_bottom_track_15\.DFF_0_\.Q
*242 mem_bottom_track_15\.DFF_1_\.Q
*243 mem_bottom_track_17\.DFF_0_\.Q
*244 mem_bottom_track_17\.DFF_1_\.Q
*245 mem_bottom_track_3\.DFF_0_\.Q
*246 mem_bottom_track_3\.DFF_1_\.Q
*247 mem_bottom_track_5\.DFF_0_\.Q
*248 mem_bottom_track_5\.DFF_1_\.Q
*249 mem_bottom_track_7\.DFF_0_\.Q
*250 mem_bottom_track_7\.DFF_1_\.Q
*251 mem_bottom_track_9\.DFF_0_\.Q
*252 mem_left_track_1\.DFF_0_\.Q
*253 mem_left_track_1\.DFF_1_\.Q
*254 mem_left_track_1\.DFF_2_\.Q
*255 mem_left_track_17\.DFF_0_\.D
*256 mem_left_track_17\.DFF_0_\.Q
*257 mem_left_track_17\.DFF_1_\.Q
*258 mem_left_track_9\.DFF_0_\.Q
*259 mem_left_track_9\.DFF_1_\.Q
*260 mem_right_track_0\.DFF_0_\.Q
*261 mem_right_track_0\.DFF_1_\.Q
*262 mem_right_track_0\.DFF_2_\.Q
*263 mem_right_track_16\.DFF_0_\.D
*264 mem_right_track_16\.DFF_0_\.Q
*265 mem_right_track_16\.DFF_1_\.Q
*266 mem_right_track_8\.DFF_0_\.Q
*267 mem_right_track_8\.DFF_1_\.Q
*268 mux_bottom_track_1\.INVTX1_0_\.out
*269 mux_bottom_track_1\.INVTX1_1_\.out
*270 mux_bottom_track_1\.INVTX1_2_\.out
*271 mux_bottom_track_1\.mux_l1_in_0_\.TGATE_0_\.out
*272 mux_bottom_track_1\.mux_l1_in_1_\.TGATE_0_\.out
*273 mux_bottom_track_1\.mux_l2_in_0_\.TGATE_0_\.out
*274 mux_bottom_track_11\.INVTX1_0_\.out
*275 mux_bottom_track_11\.INVTX1_1_\.out
*276 mux_bottom_track_11\.mux_l1_in_0_\.TGATE_0_\.out
*277 mux_bottom_track_11\.mux_l2_in_0_\.TGATE_0_\.out
*278 mux_bottom_track_13\.INVTX1_0_\.out
*279 mux_bottom_track_13\.INVTX1_1_\.out
*280 mux_bottom_track_13\.mux_l1_in_0_\.TGATE_0_\.out
*281 mux_bottom_track_13\.mux_l2_in_0_\.TGATE_0_\.out
*282 mux_bottom_track_15\.INVTX1_0_\.out
*283 mux_bottom_track_15\.INVTX1_1_\.out
*284 mux_bottom_track_15\.mux_l1_in_0_\.TGATE_0_\.out
*285 mux_bottom_track_15\.mux_l2_in_0_\.TGATE_0_\.out
*286 mux_bottom_track_17\.INVTX1_0_\.out
*287 mux_bottom_track_17\.INVTX1_1_\.out
*288 mux_bottom_track_17\.mux_l1_in_0_\.TGATE_0_\.out
*289 mux_bottom_track_17\.mux_l2_in_0_\.TGATE_0_\.out
*290 mux_bottom_track_3\.INVTX1_0_\.out
*291 mux_bottom_track_3\.INVTX1_1_\.out
*292 mux_bottom_track_3\.INVTX1_2_\.out
*293 mux_bottom_track_3\.mux_l1_in_0_\.TGATE_0_\.out
*294 mux_bottom_track_3\.mux_l1_in_1_\.TGATE_0_\.out
*295 mux_bottom_track_3\.mux_l2_in_0_\.TGATE_0_\.out
*296 mux_bottom_track_5\.INVTX1_0_\.out
*297 mux_bottom_track_5\.INVTX1_1_\.out
*298 mux_bottom_track_5\.mux_l1_in_0_\.TGATE_0_\.out
*299 mux_bottom_track_5\.mux_l2_in_0_\.TGATE_0_\.out
*300 mux_bottom_track_7\.INVTX1_0_\.out
*301 mux_bottom_track_7\.INVTX1_1_\.out
*302 mux_bottom_track_7\.mux_l1_in_0_\.TGATE_0_\.out
*303 mux_bottom_track_7\.mux_l2_in_0_\.TGATE_0_\.out
*304 mux_bottom_track_9\.INVTX1_0_\.out
*305 mux_bottom_track_9\.INVTX1_1_\.out
*306 mux_bottom_track_9\.mux_l1_in_0_\.TGATE_0_\.out
*307 mux_bottom_track_9\.mux_l2_in_0_\.TGATE_0_\.out
*308 mux_left_track_1\.INVTX1_2_\.out
*309 mux_left_track_1\.INVTX1_3_\.out
*310 mux_left_track_1\.INVTX1_4_\.out
*311 mux_left_track_1\.INVTX1_5_\.out
*312 mux_left_track_1\.mux_l1_in_0_\.TGATE_0_\.out
*313 mux_left_track_1\.mux_l1_in_1_\.TGATE_0_\.out
*314 mux_left_track_1\.mux_l1_in_2_\.TGATE_0_\.out
*315 mux_left_track_1\.mux_l2_in_0_\.TGATE_0_\.out
*316 mux_left_track_1\.mux_l2_in_1_\.TGATE_0_\.out
*317 mux_left_track_1\.mux_l3_in_0_\.TGATE_0_\.out
*318 mux_left_track_17\.INVTX1_2_\.out
*319 mux_left_track_17\.INVTX1_3_\.out
*320 mux_left_track_17\.INVTX1_4_\.out
*321 mux_left_track_17\.mux_l1_in_0_\.TGATE_0_\.out
*322 mux_left_track_17\.mux_l1_in_1_\.TGATE_0_\.out
*323 mux_left_track_17\.mux_l2_in_0_\.TGATE_0_\.out
*324 mux_left_track_17\.mux_l2_in_1_\.TGATE_0_\.out
*325 mux_left_track_17\.mux_l3_in_0_\.TGATE_0_\.out
*326 mux_left_track_9\.INVTX1_2_\.out
*327 mux_left_track_9\.INVTX1_3_\.out
*328 mux_left_track_9\.INVTX1_4_\.out
*329 mux_left_track_9\.INVTX1_5_\.out
*330 mux_left_track_9\.mux_l1_in_0_\.TGATE_0_\.out
*331 mux_left_track_9\.mux_l1_in_1_\.TGATE_0_\.out
*332 mux_left_track_9\.mux_l1_in_2_\.TGATE_0_\.out
*333 mux_left_track_9\.mux_l2_in_0_\.TGATE_0_\.out
*334 mux_left_track_9\.mux_l2_in_1_\.TGATE_0_\.out
*335 mux_left_track_9\.mux_l3_in_0_\.TGATE_0_\.out
*336 mux_right_track_0\.INVTX1_0_\.out
*337 mux_right_track_0\.mux_l1_in_0_\.TGATE_0_\.out
*338 mux_right_track_0\.mux_l1_in_1_\.TGATE_0_\.out
*339 mux_right_track_0\.mux_l1_in_2_\.TGATE_0_\.out
*340 mux_right_track_0\.mux_l2_in_0_\.TGATE_0_\.out
*341 mux_right_track_0\.mux_l2_in_1_\.TGATE_0_\.out
*342 mux_right_track_0\.mux_l3_in_0_\.TGATE_0_\.out
*343 mux_right_track_16\.mux_l1_in_0_\.TGATE_0_\.out
*344 mux_right_track_16\.mux_l1_in_1_\.TGATE_0_\.out
*345 mux_right_track_16\.mux_l2_in_0_\.TGATE_0_\.out
*346 mux_right_track_16\.mux_l2_in_1_\.TGATE_0_\.out
*347 mux_right_track_16\.mux_l3_in_0_\.TGATE_0_\.out
*348 mux_right_track_8\.INVTX1_0_\.out
*349 mux_right_track_8\.mux_l1_in_0_\.TGATE_0_\.out
*350 mux_right_track_8\.mux_l1_in_1_\.TGATE_0_\.out
*351 mux_right_track_8\.mux_l1_in_2_\.TGATE_0_\.out
*352 mux_right_track_8\.mux_l2_in_0_\.TGATE_0_\.out
*353 mux_right_track_8\.mux_l2_in_1_\.TGATE_0_\.out
*354 mux_right_track_8\.mux_l3_in_0_\.TGATE_0_\.out
*355 net1
*356 net10
*357 net100
*358 net101
*359 net102
*360 net103
*361 net104
*362 net105
*363 net106
*364 net107
*365 net108
*366 net109
*367 net11
*368 net110
*369 net111
*370 net112
*371 net12
*372 net13
*373 net14
*374 net15
*375 net16
*376 net17
*377 net18
*378 net19
*379 net2
*380 net20
*381 net21
*382 net22
*383 net23
*384 net24
*385 net25
*386 net26
*387 net27
*388 net28
*389 net29
*390 net3
*391 net30
*392 net31
*393 net32
*394 net33
*395 net34
*396 net35
*397 net36
*398 net37
*399 net38
*400 net39
*401 net4
*402 net40
*403 net41
*404 net42
*405 net43
*406 net44
*407 net45
*408 net46
*409 net47
*410 net48
*411 net49
*412 net5
*413 net50
*414 net51
*415 net52
*416 net53
*417 net54
*418 net55
*419 net56
*420 net57
*421 net58
*422 net59
*423 net6
*424 net60
*425 net61
*426 net62
*427 net63
*428 net64
*429 net65
*430 net66
*431 net67
*432 net68
*433 net69
*434 net7
*435 net70
*436 net71
*437 net72
*438 net73
*439 net74
*440 net75
*441 net76
*442 net77
*443 net78
*444 net79
*445 net8
*446 net80
*447 net81
*448 net82
*449 net83
*450 net84
*451 net85
*452 net86
*453 net87
*454 net88
*455 net89
*456 net9
*457 net90
*458 net91
*459 net92
*460 net93
*461 net94
*462 net95
*463 net96
*464 net97
*465 net98
*466 net99
*467 ANTENNA_1
*468 ANTENNA_10
*469 ANTENNA_2
*470 ANTENNA_3
*471 ANTENNA_4
*472 ANTENNA_5
*473 ANTENNA_6
*474 ANTENNA_7
*475 ANTENNA_8
*476 ANTENNA_9
*477 FILLER_0_0_144
*478 FILLER_0_0_52
*479 FILLER_0_0_91
*480 FILLER_0_10_138
*481 FILLER_0_10_144
*482 FILLER_0_10_85
*483 FILLER_0_10_9
*484 FILLER_0_11_105
*485 FILLER_0_11_17
*486 FILLER_0_11_3
*487 FILLER_0_11_54
*488 FILLER_0_11_8
*489 FILLER_0_11_91
*490 FILLER_0_12_141
*491 FILLER_0_12_52
*492 FILLER_0_12_6
*493 FILLER_0_13_10
*494 FILLER_0_13_113
*495 FILLER_0_13_135
*496 FILLER_0_13_145
*497 FILLER_0_13_23
*498 FILLER_0_13_3
*499 FILLER_0_13_75
*500 FILLER_0_14_129
*501 FILLER_0_14_138
*502 FILLER_0_14_141
*503 FILLER_0_14_20
*504 FILLER_0_14_27
*505 FILLER_0_14_3
*506 FILLER_0_14_85
*507 FILLER_0_14_93
*508 FILLER_0_15_10
*509 FILLER_0_15_113
*510 FILLER_0_15_130
*511 FILLER_0_15_28
*512 FILLER_0_15_6
*513 FILLER_0_15_77
*514 FILLER_0_16_101
*515 FILLER_0_16_12
*516 FILLER_0_16_138
*517 FILLER_0_16_144
*518 FILLER_0_16_21
*519 FILLER_0_16_37
*520 FILLER_0_16_55
*521 FILLER_0_16_82
*522 FILLER_0_16_93
*523 FILLER_0_17_102
*524 FILLER_0_17_110
*525 FILLER_0_17_113
*526 FILLER_0_17_127
*527 FILLER_0_17_137
*528 FILLER_0_17_35
*529 FILLER_0_17_55
*530 FILLER_0_17_57
*531 FILLER_0_17_6
*532 FILLER_0_17_79
*533 FILLER_0_17_91
*534 FILLER_0_17_95
*535 FILLER_0_18_12
*536 FILLER_0_18_141
*537 FILLER_0_18_82
*538 FILLER_0_18_96
*539 FILLER_0_19_101
*540 FILLER_0_19_105
*541 FILLER_0_19_11
*542 FILLER_0_19_113
*543 FILLER_0_19_124
*544 FILLER_0_19_128
*545 FILLER_0_19_144
*546 FILLER_0_19_15
*547 FILLER_0_19_20
*548 FILLER_0_19_24
*549 FILLER_0_19_3
*550 FILLER_0_19_53
*551 FILLER_0_19_57
*552 FILLER_0_19_77
*553 FILLER_0_19_92
*554 FILLER_0_1_15
*555 FILLER_0_1_19
*556 FILLER_0_1_38
*557 FILLER_0_1_94
*558 FILLER_0_20_101
*559 FILLER_0_20_109
*560 FILLER_0_20_135
*561 FILLER_0_20_141
*562 FILLER_0_20_17
*563 FILLER_0_20_39
*564 FILLER_0_20_46
*565 FILLER_0_20_58
*566 FILLER_0_20_66
*567 FILLER_0_20_82
*568 FILLER_0_20_9
*569 FILLER_0_21_103
*570 FILLER_0_21_111
*571 FILLER_0_21_113
*572 FILLER_0_21_128
*573 FILLER_0_21_15
*574 FILLER_0_21_37
*575 FILLER_0_21_41
*576 FILLER_0_21_53
*577 FILLER_0_21_57
*578 FILLER_0_21_69
*579 FILLER_0_21_73
*580 FILLER_0_21_90
*581 FILLER_0_22_105
*582 FILLER_0_22_117
*583 FILLER_0_22_129
*584 FILLER_0_22_137
*585 FILLER_0_22_141
*586 FILLER_0_22_145
*587 FILLER_0_22_16
*588 FILLER_0_22_20
*589 FILLER_0_22_29
*590 FILLER_0_22_3
*591 FILLER_0_22_33
*592 FILLER_0_22_45
*593 FILLER_0_22_57
*594 FILLER_0_22_69
*595 FILLER_0_22_77
*596 FILLER_0_22_82
*597 FILLER_0_22_88
*598 FILLER_0_23_10
*599 FILLER_0_23_105
*600 FILLER_0_23_111
*601 FILLER_0_23_113
*602 FILLER_0_23_125
*603 FILLER_0_23_137
*604 FILLER_0_23_141
*605 FILLER_0_23_24
*606 FILLER_0_23_36
*607 FILLER_0_23_48
*608 FILLER_0_23_57
*609 FILLER_0_23_6
*610 FILLER_0_23_69
*611 FILLER_0_23_81
*612 FILLER_0_23_93
*613 FILLER_0_24_109
*614 FILLER_0_24_121
*615 FILLER_0_24_133
*616 FILLER_0_24_139
*617 FILLER_0_24_141
*618 FILLER_0_24_15
*619 FILLER_0_24_27
*620 FILLER_0_24_29
*621 FILLER_0_24_41
*622 FILLER_0_24_52
*623 FILLER_0_24_64
*624 FILLER_0_24_76
*625 FILLER_0_24_85
*626 FILLER_0_24_97
*627 FILLER_0_25_105
*628 FILLER_0_25_111
*629 FILLER_0_25_113
*630 FILLER_0_25_125
*631 FILLER_0_25_137
*632 FILLER_0_25_145
*633 FILLER_0_25_21
*634 FILLER_0_25_33
*635 FILLER_0_25_45
*636 FILLER_0_25_53
*637 FILLER_0_25_57
*638 FILLER_0_25_69
*639 FILLER_0_25_81
*640 FILLER_0_25_9
*641 FILLER_0_25_93
*642 FILLER_0_26_109
*643 FILLER_0_26_121
*644 FILLER_0_26_133
*645 FILLER_0_26_14
*646 FILLER_0_26_141
*647 FILLER_0_26_26
*648 FILLER_0_26_29
*649 FILLER_0_26_3
*650 FILLER_0_26_41
*651 FILLER_0_26_53
*652 FILLER_0_26_65
*653 FILLER_0_26_80
*654 FILLER_0_26_85
*655 FILLER_0_26_97
*656 FILLER_0_27_109
*657 FILLER_0_27_113
*658 FILLER_0_27_125
*659 FILLER_0_27_133
*660 FILLER_0_27_141
*661 FILLER_0_27_19
*662 FILLER_0_27_27
*663 FILLER_0_27_29
*664 FILLER_0_27_3
*665 FILLER_0_27_41
*666 FILLER_0_27_53
*667 FILLER_0_27_57
*668 FILLER_0_27_69
*669 FILLER_0_27_81
*670 FILLER_0_27_85
*671 FILLER_0_27_97
*672 FILLER_0_2_116
*673 FILLER_0_2_139
*674 FILLER_0_2_144
*675 FILLER_0_2_16
*676 FILLER_0_2_29
*677 FILLER_0_2_3
*678 FILLER_0_2_73
*679 FILLER_0_2_88
*680 FILLER_0_3_20
*681 FILLER_0_3_37
*682 FILLER_0_3_65
*683 FILLER_0_3_91
*684 FILLER_0_4_104
*685 FILLER_0_4_108
*686 FILLER_0_4_141
*687 FILLER_0_4_27
*688 FILLER_0_4_32
*689 FILLER_0_5_113
*690 FILLER_0_5_3
*691 FILLER_0_5_52
*692 FILLER_0_5_57
*693 FILLER_0_5_71
*694 FILLER_0_5_99
*695 FILLER_0_6_144
*696 FILLER_0_6_29
*697 FILLER_0_6_3
*698 FILLER_0_6_77
*699 FILLER_0_7_110
*700 FILLER_0_7_19
*701 FILLER_0_7_29
*702 FILLER_0_7_49
*703 FILLER_0_7_79
*704 FILLER_0_7_84
*705 FILLER_0_7_98
*706 FILLER_0_8_108
*707 FILLER_0_8_118
*708 FILLER_0_8_138
*709 FILLER_0_8_144
*710 FILLER_0_8_45
*711 FILLER_0_8_67
*712 FILLER_0_9_11
*713 FILLER_0_9_144
*714 FILLER_0_9_3
*715 FILLER_0_9_52
*716 FILLER_0_9_72
*717 PHY_0
*718 PHY_1
*719 PHY_10
*720 PHY_11
*721 PHY_12
*722 PHY_13
*723 PHY_14
*724 PHY_15
*725 PHY_16
*726 PHY_17
*727 PHY_18
*728 PHY_19
*729 PHY_2
*730 PHY_20
*731 PHY_21
*732 PHY_22
*733 PHY_23
*734 PHY_24
*735 PHY_25
*736 PHY_26
*737 PHY_27
*738 PHY_28
*739 PHY_29
*740 PHY_3
*741 PHY_30
*742 PHY_31
*743 PHY_32
*744 PHY_33
*745 PHY_34
*746 PHY_35
*747 PHY_36
*748 PHY_37
*749 PHY_38
*750 PHY_39
*751 PHY_4
*752 PHY_40
*753 PHY_41
*754 PHY_42
*755 PHY_43
*756 PHY_44
*757 PHY_45
*758 PHY_46
*759 PHY_47
*760 PHY_48
*761 PHY_49
*762 PHY_5
*763 PHY_50
*764 PHY_51
*765 PHY_52
*766 PHY_53
*767 PHY_54
*768 PHY_55
*769 PHY_6
*770 PHY_7
*771 PHY_8
*772 PHY_9
*773 TAP_100
*774 TAP_101
*775 TAP_102
*776 TAP_103
*777 TAP_104
*778 TAP_105
*779 TAP_106
*780 TAP_107
*781 TAP_108
*782 TAP_109
*783 TAP_110
*784 TAP_111
*785 TAP_112
*786 TAP_113
*787 TAP_114
*788 TAP_115
*789 TAP_116
*790 TAP_117
*791 TAP_118
*792 TAP_119
*793 TAP_120
*794 TAP_121
*795 TAP_122
*796 TAP_123
*797 TAP_124
*798 TAP_125
*799 TAP_126
*800 TAP_127
*801 TAP_128
*802 TAP_129
*803 TAP_130
*804 TAP_56
*805 TAP_57
*806 TAP_58
*807 TAP_59
*808 TAP_60
*809 TAP_61
*810 TAP_62
*811 TAP_63
*812 TAP_64
*813 TAP_65
*814 TAP_66
*815 TAP_67
*816 TAP_68
*817 TAP_69
*818 TAP_70
*819 TAP_71
*820 TAP_72
*821 TAP_73
*822 TAP_74
*823 TAP_75
*824 TAP_76
*825 TAP_77
*826 TAP_78
*827 TAP_79
*828 TAP_80
*829 TAP_81
*830 TAP_82
*831 TAP_83
*832 TAP_84
*833 TAP_85
*834 TAP_86
*835 TAP_87
*836 TAP_88
*837 TAP_89
*838 TAP_90
*839 TAP_91
*840 TAP_92
*841 TAP_93
*842 TAP_94
*843 TAP_95
*844 TAP_96
*845 TAP_97
*846 TAP_98
*847 TAP_99
*848 _177_
*849 _178_
*850 _179_
*851 _180_
*852 _181_
*853 _182_
*854 _183_
*855 _184_
*856 _185_
*857 _186_
*858 _187_
*859 _188_
*860 _189_
*861 _190_
*862 _191_
*863 _192_
*864 _193_
*865 _194_
*866 _195_
*867 _196_
*868 _197_
*869 _198_
*870 _199_
*871 _200_
*872 _201_
*873 _202_
*874 _203_
*875 _204_
*876 _205_
*877 _206_
*878 _207_
*879 _208_
*880 _209_
*881 _210_
*882 _211_
*883 _212_
*884 _213_
*885 _214_
*886 _215_
*887 _216_
*888 _217_
*889 _218_
*890 _219_
*891 _220_
*892 _221_
*893 _222_
*894 _223_
*895 _224_
*896 _225_
*897 _226_
*898 _227_
*899 _228_
*900 _229_
*901 _230_
*902 _231_
*903 _232_
*904 _233_
*905 _234_
*906 _235_
*907 _236_
*908 _237_
*909 _238_
*910 _239_
*911 _240_
*912 _241_
*913 _242_
*914 _243_
*915 _244_
*916 _245_
*917 _246_
*918 _247_
*919 _248_
*920 _249_
*921 _250_
*922 _251_
*923 _252_
*924 _253_
*925 _254_
*926 _255_
*927 _256_
*928 _257_
*929 _258_
*930 _259_
*931 _260_
*932 _261_
*933 _262_
*934 _263_
*935 _264_
*936 _265_
*937 _266_
*938 _267_
*939 _268_
*940 _269_
*941 _270_
*942 _271_
*943 _272_
*944 _273_
*945 _274_
*946 _275_
*947 _276_
*948 _277_
*949 _278_
*950 _279_
*951 _280_
*952 _281_
*953 _282_
*954 _283_
*955 _284_
*956 _285_
*957 _286_
*958 _287_
*959 _288_
*960 _289_
*961 _290_
*962 _291_
*963 _292_
*964 _293_
*965 _294_
*966 _295_
*967 _296_
*968 _297_
*969 _298_
*970 _299_
*971 _300_
*972 _301_
*973 _302_
*974 _303_
*975 _304_
*976 _305_
*977 _306_
*978 _307_
*979 _308_
*980 _309_
*981 _310_
*982 _311_
*983 _312_
*984 _313_
*985 _314_
*986 _315_
*987 _316_
*988 _317_
*989 _318_
*990 _319_
*991 _320_
*992 _321_
*993 _322_
*994 _323_
*995 _324_
*996 _325_
*997 _326_
*998 _327_
*999 _328_
*1000 _329_
*1001 _330_
*1002 _331_
*1003 _332_
*1004 _333_
*1005 _334_
*1006 _335_
*1007 _336_
*1008 _337_
*1009 _338_
*1010 _339_
*1011 _340_
*1012 _341_
*1013 _342_
*1014 _343_
*1015 _344_
*1016 _345_
*1017 _346_
*1018 _347_
*1019 _348_
*1020 _349_
*1021 _350_
*1022 _351_
*1023 _352_
*1024 _353_
*1025 _354_
*1026 _355_
*1027 _356_
*1028 _357_
*1029 _358_
*1030 _359_
*1031 _360_
*1032 _361_
*1033 _362_
*1034 _363_
*1035 _364_
*1036 _365_
*1037 _366_
*1038 _367_
*1039 _368_
*1040 _369_
*1041 _370_
*1042 _371_
*1043 _372_
*1044 _373_
*1045 _374_
*1046 _375_
*1047 _376_
*1048 _377_
*1049 _378_
*1050 _379_
*1051 _380_
*1052 _381_
*1053 _382_
*1054 _383_
*1055 _384_
*1056 _385_
*1057 _386_
*1058 _387_
*1059 _388_
*1060 _389_
*1061 _390_
*1062 _391_
*1063 _392_
*1064 _393_
*1065 _394_
*1066 _395_
*1067 _396_
*1068 _397_
*1069 _398_
*1070 _399_
*1071 _400_
*1072 _401_
*1073 _402_
*1074 _403_
*1075 _404_
*1076 _405_
*1077 _406_
*1078 _407_
*1079 _408_
*1080 _409_
*1081 _410_
*1082 _411_
*1083 _412_
*1084 _413_
*1085 _414_
*1086 _415_
*1087 _416_
*1088 _417_
*1089 _418_
*1090 _419_
*1091 _420_
*1092 _421_
*1093 _422_
*1094 _438_
*1095 _439_
*1096 _440_
*1097 _441_
*1098 _442_
*1099 _443_
*1100 _444_
*1101 _445_
*1102 _446_
*1103 _447_
*1104 _448_
*1105 _449_
*1106 _450_
*1107 _451_
*1108 _452_
*1109 _453_
*1110 _454_
*1111 _455_
*1112 _455__63
*1113 _456_
*1114 _457_
*1115 _458_
*1116 _459_
*1117 _460_
*1118 _461_
*1119 _462_
*1120 _463_
*1121 _463__64
*1122 _464_
*1123 _465_
*1124 _466_
*1125 _467_
*1126 _468_
*1127 _469_
*1128 _470_
*1129 _471_
*1130 _472_
*1131 _473_
*1132 _474_
*1133 _475_
*1134 _475__65
*1135 _476_
*1136 _477_
*1137 _478_
*1138 _479_
*1139 _480_
*1140 _481_
*1141 _482_
*1142 _483_
*1143 _484_
*1144 _485_
*1145 _486_
*1146 _487_
*1147 _487__66
*1148 _488_
*1149 _489_
*1150 _490_
*1151 _491_
*1152 _492_
*1153 _493_
*1154 _494_
*1155 _495_
*1156 _496_
*1157 _497_
*1158 _498_
*1159 _499_
*1160 _499__67
*1161 _500_
*1162 _501_
*1163 _502_
*1164 _503_
*1165 _504_
*1166 _505_
*1167 _506_
*1168 _507_
*1169 _508_
*1170 _509_
*1171 _509__68
*1172 _510_
*1173 _511_
*1174 _512_
*1175 _513_
*1176 _514_
*1177 _515_
*1178 _516_
*1179 _517_
*1180 _518_
*1181 _519_
*1182 _519__69
*1183 _520_
*1184 _521_
*1185 _522_
*1186 _523_
*1187 _524_
*1188 _525_
*1189 _525__70
*1190 _526_
*1191 _527_
*1192 _528_
*1193 _529_
*1194 _530_
*1195 _530__71
*1196 _531_
*1197 _532_
*1198 _533_
*1199 _534_
*1200 _534__72
*1201 _535_
*1202 _536_
*1203 _537_
*1204 _538_
*1205 _538__73
*1206 _539_
*1207 _540_
*1208 _541_
*1209 _542_
*1210 _542__74
*1211 _543_
*1212 _544_
*1213 _545_
*1214 _546_
*1215 _546__75
*1216 _547_
*1217 _548_
*1218 _549_
*1219 _550_
*1220 _550__76
*1221 _551_
*1222 _552_
*1223 _553_
*1224 _554_
*1225 _554__77
*1226 _555_
*1227 _556_
*1228 _557_
*1229 clkbuf_0_prog_clk
*1230 clkbuf_2_0__f_prog_clk
*1231 clkbuf_2_1__f_prog_clk
*1232 clkbuf_2_2__f_prog_clk
*1233 clkbuf_2_3__f_prog_clk
*1234 hold1
*1235 hold10
*1236 hold11
*1237 hold12
*1238 hold13
*1239 hold14
*1240 hold15
*1241 hold16
*1242 hold17
*1243 hold18
*1244 hold19
*1245 hold2
*1246 hold20
*1247 hold21
*1248 hold22
*1249 hold23
*1250 hold24
*1251 hold25
*1252 hold26
*1253 hold27
*1254 hold28
*1255 hold29
*1256 hold3
*1257 hold30
*1258 hold31
*1259 hold32
*1260 hold33
*1261 hold34
*1262 hold35
*1263 hold4
*1264 hold5
*1265 hold6
*1266 hold7
*1267 hold8
*1268 hold9
*1269 input1
*1270 input10
*1271 input11
*1272 input12
*1273 input13
*1274 input14
*1275 input15
*1276 input16
*1277 input17
*1278 input18
*1279 input19
*1280 input2
*1281 input20
*1282 input21
*1283 input22
*1284 input23
*1285 input24
*1286 input25
*1287 input26
*1288 input27
*1289 input28
*1290 input29
*1291 input3
*1292 input30
*1293 input31
*1294 input32
*1295 input33
*1296 input34
*1297 input4
*1298 input5
*1299 input6
*1300 input7
*1301 input8
*1302 input9
*1303 output35
*1304 output36
*1305 output37
*1306 output38
*1307 output39
*1308 output40
*1309 output41
*1310 output42
*1311 output43
*1312 output44
*1313 output45
*1314 output46
*1315 output47
*1316 output48
*1317 output49
*1318 output50
*1319 output51
*1320 output52
*1321 output53
*1322 output54
*1323 output55
*1324 output56
*1325 output57
*1326 output58
*1327 output59
*1328 output60
*1329 output61
*1330 output62

*PORTS
bottom_left_grid_right_width_0_height_0_subtile_0__pin_O_3_ I
bottom_right_grid_left_width_0_height_0_subtile_0__pin_O_1_ I
ccff_head I
ccff_tail O
chanx_left_in[0] I
chanx_left_in[1] I
chanx_left_in[2] I
chanx_left_in[3] I
chanx_left_in[4] I
chanx_left_in[5] I
chanx_left_in[6] I
chanx_left_in[7] I
chanx_left_in[8] I
chanx_left_out[0] O
chanx_left_out[1] O
chanx_left_out[2] O
chanx_left_out[3] O
chanx_left_out[4] O
chanx_left_out[5] O
chanx_left_out[6] O
chanx_left_out[7] O
chanx_left_out[8] O
chanx_right_in[0] I
chanx_right_in[1] I
chanx_right_in[2] I
chanx_right_in[3] I
chanx_right_in[4] I
chanx_right_in[5] I
chanx_right_in[6] I
chanx_right_in[7] I
chanx_right_in[8] I
chanx_right_out[0] O
chanx_right_out[1] O
chanx_right_out[2] O
chanx_right_out[3] O
chanx_right_out[4] O
chanx_right_out[5] O
chanx_right_out[6] O
chanx_right_out[7] O
chanx_right_out[8] O
chany_bottom_in[0] I
chany_bottom_in[1] I
chany_bottom_in[2] I
chany_bottom_in[3] I
chany_bottom_in[4] I
chany_bottom_in[5] I
chany_bottom_in[6] I
chany_bottom_in[7] I
chany_bottom_in[8] I
chany_bottom_out[0] O
chany_bottom_out[1] O
chany_bottom_out[2] O
chany_bottom_out[3] O
chany_bottom_out[4] O
chany_bottom_out[5] O
chany_bottom_out[6] O
chany_bottom_out[7] O
chany_bottom_out[8] O
left_bottom_grid_top_width_0_height_0_subtile_0__pin_O_2_ I
left_top_grid_bottom_width_0_height_0_subtile_0__pin_inpad_0_ I
prog_clk I
right_bottom_grid_top_width_0_height_0_subtile_0__pin_O_2_ I
right_top_grid_bottom_width_0_height_0_subtile_0__pin_inpad_0_ I

*D_NET *1 0.0183145
*CONN
*P bottom_left_grid_right_width_0_height_0_subtile_0__pin_O_3_ I
*I *1269:A I *D sky130_fd_sc_hd__clkbuf_1
*I *467:DIODE I *D sky130_fd_sc_hd__diode_2
*CAP
1 bottom_left_grid_right_width_0_height_0_subtile_0__pin_O_3_ 0.00246063
2 *1269:A 0.000100842
3 *467:DIODE 5.52505e-05
4 *1:41 0.0024339
5 *1:27 0.00473843
6 *467:DIODE *926:A 0.000144494
7 *467:DIODE *172:8 5.79559e-05
8 *1269:A *287:12 8.85031e-05
9 *1:27 chany_bottom_out[0] 0
10 *1:27 *1180:Z 0.000119514
11 *1:27 *2:13 0.000643537
12 *1:27 *23:27 3.09422e-05
13 *1:27 *26:57 5.64652e-05
14 *1:27 *26:81 0.000433606
15 *1:27 *223:24 0.000355234
16 *1:27 *243:34 0.000370719
17 *1:27 *273:33 0.00225274
18 *1:27 *290:26 0.00193
19 *1:27 *422:22 8.78029e-05
20 *1:41 *961:A 7.57281e-06
21 *1:41 *24:49 0.000304468
22 *1:41 *91:10 0
23 *1:41 *92:28 8.76318e-05
24 *1:41 *93:14 0.000707394
25 *1:41 *105:16 4.3734e-05
26 *1:41 *157:10 1.9877e-05
27 *1:41 *170:20 0.000243217
28 *1:41 *226:12 8.10622e-05
29 *1:41 *234:72 0.000158796
30 *1:41 *244:65 4.11764e-05
31 *1:41 *290:12 7.46763e-06
32 *1:41 *317:43 0.000161018
33 *1:41 *328:14 9.4798e-06
34 *1:41 *383:10 0
35 *1:41 *389:12 1.77689e-05
36 *1:41 *401:30 0
37 *1:41 *433:16 6.33037e-05
*RES
1 bottom_left_grid_right_width_0_height_0_subtile_0__pin_O_3_ *1:27 48.3355 
2 *1:27 *1:41 38.0605 
3 *1:41 *467:DIODE 24.5743 
4 *1:41 *1269:A 25.0714 
*END

*D_NET *2 0.00884346
*CONN
*P bottom_right_grid_left_width_0_height_0_subtile_0__pin_O_1_ I
*I *1280:A I *D sky130_fd_sc_hd__buf_1
*CAP
1 bottom_right_grid_left_width_0_height_0_subtile_0__pin_O_1_ 0.00211839
2 *1280:A 5.13731e-05
3 *2:13 0.00216976
4 *1280:A *249:12 0
5 *1280:A *386:12 1.04361e-05
6 *2:13 *1180:Z 0.000229175
7 *2:13 *1232:A 0
8 *2:13 *49:21 0
9 *2:13 *188:24 0
10 *2:13 *195:8 8.62783e-05
11 *2:13 *198:10 0.000578235
12 *2:13 *199:22 0
13 *2:13 *228:10 0
14 *2:13 *228:12 0
15 *2:13 *243:34 0
16 *2:13 *245:94 4.51048e-05
17 *2:13 *249:12 0.000365314
18 *2:13 *249:30 0.000118081
19 *2:13 *252:149 1.02219e-05
20 *2:13 *271:37 0.00034827
21 *2:13 *273:33 3.46356e-05
22 *2:13 *282:12 2.86001e-05
23 *2:13 *293:10 0
24 *2:13 *293:31 0.000107218
25 *2:13 *320:26 0
26 *2:13 *379:10 0
27 *2:13 *386:12 0.00138317
28 *2:13 *412:41 0.000112538
29 *2:13 *444:10 0.000403127
30 *1:27 *2:13 0.000643537
*RES
1 bottom_right_grid_left_width_0_height_0_subtile_0__pin_O_1_ *2:13 49.5693 
2 *2:13 *1280:A 39.0979 
*END

*D_NET *3 0.000984485
*CONN
*P ccff_head I
*I *1291:A I *D sky130_fd_sc_hd__clkbuf_1
*CAP
1 ccff_head 0.000492243
2 *1291:A 0
3 *3:17 0.000492243
4 *3:17 ccff_tail 0
5 *3:17 *4:10 0
6 *3:17 *63:17 0
*RES
1 ccff_head *3:17 28.1981 
2 *3:17 *1291:A 23 
*END

*D_NET *4 0.00157272
*CONN
*P ccff_tail O
*I *1303:X O *D sky130_fd_sc_hd__clkbuf_4
*CAP
1 ccff_tail 0.000410795
2 *1303:X 0.000375565
3 *4:10 0.00078636
4 *3:17 ccff_tail 0
5 *3:17 *4:10 0
*RES
1 *1303:X *4:10 45.2811 
2 *4:10 ccff_tail 9.53067 
*END

*D_NET *5 0.00939984
*CONN
*P chanx_left_in[0] I
*I *1297:A I *D sky130_fd_sc_hd__buf_1
*CAP
1 chanx_left_in[0] 0.00243071
2 *1297:A 0
3 *5:19 0.00243071
4 *5:19 *44:25 0
5 *5:19 *46:27 1.05658e-05
6 *5:19 *60:31 0
7 *5:19 *61:13 0.000185773
8 *5:19 *145:24 0.000144931
9 *5:19 *153:12 6.10551e-06
10 *5:19 *153:26 0.000595804
11 *5:19 *188:24 0.00320488
12 *5:19 *189:18 9.52789e-05
13 *5:19 *192:24 0.000174095
14 *5:19 *311:28 0.000120999
*RES
1 chanx_left_in[0] *5:19 47.9376 
2 *5:19 *1297:A 23 
*END

*D_NET *6 0.0115404
*CONN
*P chanx_left_in[1] I
*I *1298:A I *D sky130_fd_sc_hd__buf_1
*CAP
1 chanx_left_in[1] 0.00232902
2 *1298:A 0
3 *6:31 0.000768219
4 *6:23 0.00309724
5 *6:23 *1137:Z 4.87737e-05
6 *6:23 *7:13 0
7 *6:23 *23:33 0.000367512
8 *6:23 *31:29 0.000553416
9 *6:23 *153:26 9.0377e-05
10 *6:23 *154:24 0.000966509
11 *6:23 *192:24 3.33909e-05
12 *6:23 *229:28 0.000204973
13 *6:23 *229:39 0.00031045
14 *6:23 *241:56 2.29576e-05
15 *6:23 *244:44 0.000119551
16 *6:23 *252:40 5.09996e-05
17 *6:23 *253:29 0
18 *6:23 *308:10 0.00027876
19 *6:23 *310:32 3.55603e-05
20 *6:23 *312:36 0.000228634
21 *6:23 *317:12 9.63642e-05
22 *6:23 *375:20 9.81456e-05
23 *6:23 *379:24 1.75712e-05
24 *6:23 *423:30 0.000178421
25 *6:31 *10:15 0.000555762
26 *6:31 *146:20 3.96216e-05
27 *6:31 *170:26 0.000487135
28 *6:31 *173:10 0.00021157
29 *6:31 *233:18 0.000140734
30 *6:31 *258:85 8.62876e-05
31 *6:31 *305:18 2.82708e-05
32 *6:31 *345:16 7.55491e-05
33 *6:31 *412:10 1.85916e-05
*RES
1 chanx_left_in[1] *6:23 42.203 
2 *6:23 *6:31 32.3068 
3 *6:31 *1298:A 23 
*END

*D_NET *7 0.00531936
*CONN
*P chanx_left_in[2] I
*I *1299:A I *D sky130_fd_sc_hd__buf_1
*CAP
1 chanx_left_in[2] 0.000503409
2 *1299:A 0.000333991
3 *7:13 0.0008374
4 *1299:A *13:13 0.000306103
5 *1299:A *327:14 0
6 *7:13 *8:11 0
7 *7:13 *42:13 0.00166923
8 *7:13 *93:16 0.00166923
9 *6:23 *7:13 0
*RES
1 chanx_left_in[2] *7:13 45.2753 
2 *7:13 *1299:A 28.4064 
*END

*D_NET *8 0.00368274
*CONN
*P chanx_left_in[3] I
*I *1300:A I *D sky130_fd_sc_hd__buf_1
*CAP
1 chanx_left_in[3] 0.00114187
2 *1300:A 0
3 *8:11 0.00114187
4 *8:11 *9:11 5.71989e-05
5 *8:11 *43:19 0
6 *8:11 *147:20 0.000125356
7 *8:11 *175:8 0.000322892
8 *8:11 *241:56 9.20387e-05
9 *8:11 *311:28 0.000159581
10 *8:11 *326:12 9.82661e-05
11 *8:11 *367:14 0.000543663
12 *7:13 *8:11 0
*RES
1 chanx_left_in[3] *8:11 37.0137 
2 *8:11 *1300:A 23 
*END

*D_NET *9 0.00468427
*CONN
*P chanx_left_in[4] I
*I *1301:A I *D sky130_fd_sc_hd__dlymetal6s2s_1
*CAP
1 chanx_left_in[4] 0.00119008
2 *1301:A 0
3 *9:11 0.00119008
4 *9:11 *10:15 0
5 *9:11 *42:13 0
6 *9:11 *43:19 0
7 *9:11 *151:12 1.60583e-05