*SPEF "ieee 1481-1999"
*DESIGN "sb_8__10_"
*DATE "11:11:11 Fri 11 11, 1111"
*VENDOR "OpenRCX"
*PROGRAM "Parallel Extraction"
*VERSION "1.0"
*DESIGN_FLOW "NAME_SCOPE LOCAL" "PIN_CAP NONE"
*DIVIDER /
*DELIMITER :
*BUS_DELIMITER []
*T_UNIT 1 NS
*C_UNIT 1 PF
*R_UNIT 1 OHM
*L_UNIT 1 HENRY

*NAME_MAP
*1 bottom_left_grid_right_width_0_height_0_subtile_0__pin_O_3_
*2 bottom_right_grid_left_width_0_height_0_subtile_0__pin_inpad_0_
*3 ccff_head
*4 ccff_tail
*5 chanx_left_in[0]
*6 chanx_left_in[1]
*7 chanx_left_in[2]
*8 chanx_left_in[3]
*9 chanx_left_in[4]
*10 chanx_left_in[5]
*11 chanx_left_in[6]
*12 chanx_left_in[7]
*13 chanx_left_in[8]
*14 chanx_left_out[0]
*15 chanx_left_out[1]
*16 chanx_left_out[2]
*17 chanx_left_out[3]
*18 chanx_left_out[4]
*19 chanx_left_out[5]
*20 chanx_left_out[6]
*21 chanx_left_out[7]
*22 chanx_left_out[8]
*23 chany_bottom_in[0]
*24 chany_bottom_in[1]
*25 chany_bottom_in[2]
*26 chany_bottom_in[3]
*27 chany_bottom_in[4]
*28 chany_bottom_in[5]
*29 chany_bottom_in[6]
*30 chany_bottom_in[7]
*31 chany_bottom_in[8]
*32 chany_bottom_out[0]
*33 chany_bottom_out[1]
*34 chany_bottom_out[2]
*35 chany_bottom_out[3]
*36 chany_bottom_out[4]
*37 chany_bottom_out[5]
*38 chany_bottom_out[6]
*39 chany_bottom_out[7]
*40 chany_bottom_out[8]
*41 left_bottom_grid_top_width_0_height_0_subtile_0__pin_O_2_
*42 left_top_grid_bottom_width_0_height_0_subtile_0__pin_inpad_0_
*43 prog_clk
*46 _000_
*47 _001_
*48 _002_
*49 _003_
*50 _004_
*51 _005_
*52 _006_
*53 _007_
*54 _008_
*55 _009_
*56 _010_
*57 _011_
*58 _012_
*59 _013_
*60 _014_
*61 _015_
*62 _016_
*63 _017_
*64 _018_
*65 _019_
*66 _020_
*67 _021_
*68 _022_
*69 _023_
*70 clknet_0_prog_clk
*71 clknet_1_0__leaf_prog_clk
*72 clknet_1_1__leaf_prog_clk
*73 mem_bottom_track_1\.DFF_0_\.Q
*74 mem_bottom_track_1\.DFF_1_\.Q
*75 mem_bottom_track_3\.DFF_0_\.Q
*76 mem_bottom_track_3\.DFF_1_\.Q
*77 mem_left_track_1\.DFF_0_\.Q
*78 mem_left_track_1\.DFF_1_\.Q
*79 mem_left_track_3\.DFF_0_\.Q
*80 mux_bottom_track_1\.INVTX1_0_\.out
*81 mux_bottom_track_1\.INVTX1_1_\.out
*82 mux_bottom_track_1\.mux_l1_in_0_\.TGATE_0_\.out
*83 mux_bottom_track_1\.mux_l2_in_0_\.TGATE_0_\.out
*84 mux_bottom_track_3\.INVTX1_0_\.out
*85 mux_bottom_track_3\.INVTX1_1_\.out
*86 mux_bottom_track_3\.mux_l1_in_0_\.TGATE_0_\.out
*87 mux_bottom_track_3\.mux_l2_in_0_\.TGATE_0_\.out
*88 mux_left_track_1\.INVTX1_0_\.out
*89 mux_left_track_1\.INVTX1_1_\.out
*90 mux_left_track_1\.mux_l1_in_0_\.TGATE_0_\.out
*91 mux_left_track_1\.mux_l2_in_0_\.TGATE_0_\.out
*92 mux_left_track_3\.INVTX1_0_\.out
*93 mux_left_track_3\.INVTX1_1_\.out
*94 mux_left_track_3\.mux_l1_in_0_\.TGATE_0_\.out
*95 mux_left_track_3\.mux_l2_in_0_\.TGATE_0_\.out
*96 net1
*97 net10
*98 net11
*99 net12
*100 net13
*101 net14
*102 net15
*103 net16
*104 net17
*105 net18
*106 net19
*107 net2
*108 net20
*109 net21
*110 net22
*111 net23
*112 net24
*113 net25
*114 net26
*115 net27
*116 net28
*117 net29
*118 net3
*119 net30
*120 net31
*121 net32
*122 net33
*123 net34
*124 net35
*125 net36
*126 net37
*127 net38
*128 net39
*129 net4
*130 net40
*131 net41
*132 net42
*133 net43
*134 net44
*135 net45
*136 net46
*137 net47
*138 net48
*139 net49
*140 net5
*141 net50
*142 net51
*143 net52
*144 net53
*145 net6
*146 net7
*147 net8
*148 net9
*149 FILLER_0_0_111
*150 FILLER_0_0_116
*151 FILLER_0_0_120
*152 FILLER_0_0_127
*153 FILLER_0_0_144
*154 FILLER_0_0_16
*155 FILLER_0_0_27
*156 FILLER_0_0_3
*157 FILLER_0_0_51
*158 FILLER_0_0_55
*159 FILLER_0_0_60
*160 FILLER_0_0_7
*161 FILLER_0_0_71
*162 FILLER_0_0_83
*163 FILLER_0_0_88
*164 FILLER_0_0_99
*165 FILLER_0_10_109
*166 FILLER_0_10_121
*167 FILLER_0_10_133
*168 FILLER_0_10_139
*169 FILLER_0_10_141
*170 FILLER_0_10_145
*171 FILLER_0_10_15
*172 FILLER_0_10_27
*173 FILLER_0_10_29
*174 FILLER_0_10_3
*175 FILLER_0_10_41
*176 FILLER_0_10_53
*177 FILLER_0_10_65
*178 FILLER_0_10_77
*179 FILLER_0_10_83
*180 FILLER_0_10_85
*181 FILLER_0_10_97
*182 FILLER_0_11_105
*183 FILLER_0_11_111
*184 FILLER_0_11_113
*185 FILLER_0_11_125
*186 FILLER_0_11_137
*187 FILLER_0_11_21
*188 FILLER_0_11_33
*189 FILLER_0_11_45
*190 FILLER_0_11_53
*191 FILLER_0_11_57
*192 FILLER_0_11_69
*193 FILLER_0_11_81
*194 FILLER_0_11_89
*195 FILLER_0_11_9
*196 FILLER_0_11_93
*197 FILLER_0_12_106
*198 FILLER_0_12_118
*199 FILLER_0_12_130
*200 FILLER_0_12_138
*201 FILLER_0_12_141
*202 FILLER_0_12_145
*203 FILLER_0_12_21
*204 FILLER_0_12_27
*205 FILLER_0_12_29
*206 FILLER_0_12_41
*207 FILLER_0_12_53
*208 FILLER_0_12_65
*209 FILLER_0_12_77
*210 FILLER_0_12_83
*211 FILLER_0_12_85
*212 FILLER_0_12_9
*213 FILLER_0_12_97
*214 FILLER_0_13_105
*215 FILLER_0_13_111
*216 FILLER_0_13_113
*217 FILLER_0_13_125
*218 FILLER_0_13_137
*219 FILLER_0_13_145
*220 FILLER_0_13_15
*221 FILLER_0_13_27
*222 FILLER_0_13_3
*223 FILLER_0_13_39
*224 FILLER_0_13_51
*225 FILLER_0_13_55
*226 FILLER_0_13_57
*227 FILLER_0_13_69
*228 FILLER_0_13_81
*229 FILLER_0_13_93
*230 FILLER_0_14_109
*231 FILLER_0_14_121
*232 FILLER_0_14_133
*233 FILLER_0_14_139
*234 FILLER_0_14_141
*235 FILLER_0_14_21
*236 FILLER_0_14_27
*237 FILLER_0_14_29
*238 FILLER_0_14_41
*239 FILLER_0_14_53
*240 FILLER_0_14_65
*241 FILLER_0_14_77
*242 FILLER_0_14_83
*243 FILLER_0_14_85
*244 FILLER_0_14_9
*245 FILLER_0_14_97
*246 FILLER_0_15_105
*247 FILLER_0_15_111
*248 FILLER_0_15_113
*249 FILLER_0_15_125
*250 FILLER_0_15_137
*251 FILLER_0_15_143
*252 FILLER_0_15_18
*253 FILLER_0_15_30
*254 FILLER_0_15_42
*255 FILLER_0_15_54
*256 FILLER_0_15_57
*257 FILLER_0_15_6
*258 FILLER_0_15_69
*259 FILLER_0_15_81
*260 FILLER_0_15_93
*261 FILLER_0_16_109
*262 FILLER_0_16_121
*263 FILLER_0_16_133
*264 FILLER_0_16_139
*265 FILLER_0_16_141
*266 FILLER_0_16_145
*267 FILLER_0_16_15
*268 FILLER_0_16_27
*269 FILLER_0_16_29
*270 FILLER_0_16_3
*271 FILLER_0_16_41
*272 FILLER_0_16_53
*273 FILLER_0_16_65
*274 FILLER_0_16_77
*275 FILLER_0_16_83
*276 FILLER_0_16_85
*277 FILLER_0_16_97
*278 FILLER_0_17_105
*279 FILLER_0_17_111
*280 FILLER_0_17_113
*281 FILLER_0_17_125
*282 FILLER_0_17_137
*283 FILLER_0_17_141
*284 FILLER_0_17_21
*285 FILLER_0_17_33
*286 FILLER_0_17_45
*287 FILLER_0_17_53
*288 FILLER_0_17_57
*289 FILLER_0_17_69
*290 FILLER_0_17_81
*291 FILLER_0_17_9
*292 FILLER_0_17_93
*293 FILLER_0_18_109
*294 FILLER_0_18_11
*295 FILLER_0_18_121
*296 FILLER_0_18_133
*297 FILLER_0_18_139
*298 FILLER_0_18_141
*299 FILLER_0_18_145
*300 FILLER_0_18_23
*301 FILLER_0_18_27
*302 FILLER_0_18_29
*303 FILLER_0_18_3
*304 FILLER_0_18_41
*305 FILLER_0_18_53
*306 FILLER_0_18_65
*307 FILLER_0_18_77
*308 FILLER_0_18_83
*309 FILLER_0_18_85
*310 FILLER_0_18_97
*311 FILLER_0_19_105
*312 FILLER_0_19_111
*313 FILLER_0_19_113
*314 FILLER_0_19_125
*315 FILLER_0_19_137
*316 FILLER_0_19_145
*317 FILLER_0_19_15
*318 FILLER_0_19_27
*319 FILLER_0_19_3
*320 FILLER_0_19_39
*321 FILLER_0_19_51
*322 FILLER_0_19_55
*323 FILLER_0_19_57
*324 FILLER_0_19_69
*325 FILLER_0_19_81
*326 FILLER_0_19_93
*327 FILLER_0_1_105
*328 FILLER_0_1_111
*329 FILLER_0_1_145
*330 FILLER_0_1_3
*331 FILLER_0_1_42
*332 FILLER_0_1_54
*333 FILLER_0_1_57
*334 FILLER_0_1_69
*335 FILLER_0_1_93
*336 FILLER_0_20_109
*337 FILLER_0_20_11
*338 FILLER_0_20_121
*339 FILLER_0_20_133
*340 FILLER_0_20_141
*341 FILLER_0_20_23
*342 FILLER_0_20_27
*343 FILLER_0_20_29
*344 FILLER_0_20_3
*345 FILLER_0_20_41
*346 FILLER_0_20_53
*347 FILLER_0_20_65
*348 FILLER_0_20_77
*349 FILLER_0_20_83
*350 FILLER_0_20_85
*351 FILLER_0_20_97
*352 FILLER_0_21_105
*353 FILLER_0_21_111
*354 FILLER_0_21_113
*355 FILLER_0_21_125
*356 FILLER_0_21_137
*357 FILLER_0_21_145
*358 FILLER_0_21_18
*359 FILLER_0_21_30
*360 FILLER_0_21_42
*361 FILLER_0_21_54
*362 FILLER_0_21_57
*363 FILLER_0_21_6
*364 FILLER_0_21_69
*365 FILLER_0_21_81
*366 FILLER_0_21_93
*367 FILLER_0_22_109
*368 FILLER_0_22_121
*369 FILLER_0_22_133
*370 FILLER_0_22_139
*371 FILLER_0_22_141
*372 FILLER_0_22_145
*373 FILLER_0_22_15
*374 FILLER_0_22_27
*375 FILLER_0_22_29
*376 FILLER_0_22_3
*377 FILLER_0_22_41
*378 FILLER_0_22_53
*379 FILLER_0_22_65
*380 FILLER_0_22_77
*381 FILLER_0_22_83
*382 FILLER_0_22_85
*383 FILLER_0_22_97
*384 FILLER_0_23_105
*385 FILLER_0_23_111
*386 FILLER_0_23_113
*387 FILLER_0_23_125
*388 FILLER_0_23_137
*389 FILLER_0_23_141
*390 FILLER_0_23_18
*391 FILLER_0_23_30
*392 FILLER_0_23_42
*393 FILLER_0_23_54
*394 FILLER_0_23_57
*395 FILLER_0_23_6
*396 FILLER_0_23_69
*397 FILLER_0_23_81
*398 FILLER_0_23_93
*399 FILLER_0_24_109
*400 FILLER_0_24_11
*401 FILLER_0_24_121
*402 FILLER_0_24_133
*403 FILLER_0_24_139
*404 FILLER_0_24_141
*405 FILLER_0_24_145
*406 FILLER_0_24_23
*407 FILLER_0_24_27
*408 FILLER_0_24_29
*409 FILLER_0_24_3
*410 FILLER_0_24_41
*411 FILLER_0_24_53
*412 FILLER_0_24_65
*413 FILLER_0_24_77
*414 FILLER_0_24_83
*415 FILLER_0_24_85
*416 FILLER_0_24_97
*417 FILLER_0_25_105
*418 FILLER_0_25_111
*419 FILLER_0_25_113
*420 FILLER_0_25_125
*421 FILLER_0_25_137
*422 FILLER_0_25_145
*423 FILLER_0_25_15
*424 FILLER_0_25_27
*425 FILLER_0_25_3
*426 FILLER_0_25_39
*427 FILLER_0_25_51
*428 FILLER_0_25_55
*429 FILLER_0_25_57
*430 FILLER_0_25_69
*431 FILLER_0_25_81
*432 FILLER_0_25_93
*433 FILLER_0_26_109
*434 FILLER_0_26_121
*435 FILLER_0_26_133
*436 FILLER_0_26_141
*437 FILLER_0_26_18
*438 FILLER_0_26_26
*439 FILLER_0_26_29
*440 FILLER_0_26_41
*441 FILLER_0_26_53
*442 FILLER_0_26_6
*443 FILLER_0_26_65
*444 FILLER_0_26_77
*445 FILLER_0_26_83
*446 FILLER_0_26_85
*447 FILLER_0_26_97
*448 FILLER_0_27_109
*449 FILLER_0_27_113
*450 FILLER_0_27_12
*451 FILLER_0_27_125
*452 FILLER_0_27_133
*453 FILLER_0_27_141
*454 FILLER_0_27_145
*455 FILLER_0_27_24
*456 FILLER_0_27_29
*457 FILLER_0_27_41
*458 FILLER_0_27_53
*459 FILLER_0_27_57
*460 FILLER_0_27_69
*461 FILLER_0_27_81
*462 FILLER_0_27_85
*463 FILLER_0_27_97
*464 FILLER_0_2_136
*465 FILLER_0_2_141
*466 FILLER_0_2_18
*467 FILLER_0_2_29
*468 FILLER_0_2_46
*469 FILLER_0_2_58
*470 FILLER_0_2_70
*471 FILLER_0_2_82
*472 FILLER_0_2_85
*473 FILLER_0_2_97
*474 FILLER_0_3_105
*475 FILLER_0_3_111
*476 FILLER_0_3_113
*477 FILLER_0_3_119
*478 FILLER_0_3_131
*479 FILLER_0_3_144
*480 FILLER_0_3_3
*481 FILLER_0_3_39
*482 FILLER_0_3_46
*483 FILLER_0_3_54
*484 FILLER_0_3_57
*485 FILLER_0_3_69
*486 FILLER_0_3_7
*487 FILLER_0_3_81
*488 FILLER_0_3_93
*489 FILLER_0_4_109
*490 FILLER_0_4_126
*491 FILLER_0_4_144
*492 FILLER_0_4_37
*493 FILLER_0_4_49
*494 FILLER_0_4_57
*495 FILLER_0_4_79
*496 FILLER_0_4_83
*497 FILLER_0_4_85
*498 FILLER_0_4_97
*499 FILLER_0_5_107
*500 FILLER_0_5_111
*501 FILLER_0_5_140
*502 FILLER_0_5_21
*503 FILLER_0_5_34
*504 FILLER_0_5_46
*505 FILLER_0_5_54
*506 FILLER_0_5_65
*507 FILLER_0_5_77
*508 FILLER_0_5_89
*509 FILLER_0_6_109
*510 FILLER_0_6_124
*511 FILLER_0_6_144
*512 FILLER_0_6_16
*513 FILLER_0_6_23
*514 FILLER_0_6_27
*515 FILLER_0_6_29
*516 FILLER_0_6_41
*517 FILLER_0_6_47
*518 FILLER_0_6_51
*519 FILLER_0_6_63
*520 FILLER_0_6_75
*521 FILLER_0_6_83
*522 FILLER_0_6_85
*523 FILLER_0_6_9
*524 FILLER_0_6_97
*525 FILLER_0_7_105
*526 FILLER_0_7_111
*527 FILLER_0_7_113
*528 FILLER_0_7_127
*529 FILLER_0_7_145
*530 FILLER_0_7_17
*531 FILLER_0_7_29
*532 FILLER_0_7_3
*533 FILLER_0_7_41
*534 FILLER_0_7_53
*535 FILLER_0_7_57
*536 FILLER_0_7_69
*537 FILLER_0_7_81
*538 FILLER_0_7_93
*539 FILLER_0_8_109
*540 FILLER_0_8_113
*541 FILLER_0_8_117
*542 FILLER_0_8_12
*543 FILLER_0_8_129
*544 FILLER_0_8_141
*545 FILLER_0_8_24
*546 FILLER_0_8_29
*547 FILLER_0_8_41
*548 FILLER_0_8_53
*549 FILLER_0_8_61
*550 FILLER_0_8_65
*551 FILLER_0_8_77
*552 FILLER_0_8_83
*553 FILLER_0_8_85
*554 FILLER_0_8_97
*555 FILLER_0_9_103
*556 FILLER_0_9_111
*557 FILLER_0_9_113
*558 FILLER_0_9_125
*559 FILLER_0_9_137
*560 FILLER_0_9_145
*561 FILLER_0_9_21
*562 FILLER_0_9_33
*563 FILLER_0_9_45
*564 FILLER_0_9_53
*565 FILLER_0_9_57
*566 FILLER_0_9_69
*567 FILLER_0_9_75
*568 FILLER_0_9_79
*569 FILLER_0_9_9
*570 FILLER_0_9_91
*571 PHY_0
*572 PHY_1
*573 PHY_10
*574 PHY_11
*575 PHY_12
*576 PHY_13
*577 PHY_14
*578 PHY_15
*579 PHY_16
*580 PHY_17
*581 PHY_18
*582 PHY_19
*583 PHY_2
*584 PHY_20
*585 PHY_21
*586 PHY_22
*587 PHY_23
*588 PHY_24
*589 PHY_25
*590 PHY_26
*591 PHY_27
*592 PHY_28
*593 PHY_29
*594 PHY_3
*595 PHY_30
*596 PHY_31
*597 PHY_32
*598 PHY_33
*599 PHY_34
*600 PHY_35
*601 PHY_36
*602 PHY_37
*603 PHY_38
*604 PHY_39
*605 PHY_4
*606 PHY_40
*607 PHY_41
*608 PHY_42
*609 PHY_43
*610 PHY_44
*611 PHY_45
*612 PHY_46
*613 PHY_47
*614 PHY_48
*615 PHY_49
*616 PHY_5
*617 PHY_50
*618 PHY_51
*619 PHY_52
*620 PHY_53
*621 PHY_54
*622 PHY_55
*623 PHY_6
*624 PHY_7
*625 PHY_8
*626 PHY_9
*627 TAP_100
*628 TAP_101
*629 TAP_102
*630 TAP_103
*631 TAP_104
*632 TAP_105
*633 TAP_106
*634 TAP_107
*635 TAP_108
*636 TAP_109
*637 TAP_110
*638 TAP_111
*639 TAP_112
*640 TAP_113
*641 TAP_114
*642 TAP_115
*643 TAP_116
*644 TAP_117
*645 TAP_118
*646 TAP_119
*647 TAP_120
*648 TAP_121
*649 TAP_122
*650 TAP_123
*651 TAP_124
*652 TAP_125
*653 TAP_126
*654 TAP_127
*655 TAP_128
*656 TAP_129
*657 TAP_130
*658 TAP_56
*659 TAP_57
*660 TAP_58
*661 TAP_59
*662 TAP_60
*663 TAP_61
*664 TAP_62
*665 TAP_63
*666 TAP_64
*667 TAP_65
*668 TAP_66
*669 TAP_67
*670 TAP_68
*671 TAP_69
*672 TAP_70
*673 TAP_71
*674 TAP_72
*675 TAP_73
*676 TAP_74
*677 TAP_75
*678 TAP_76
*679 TAP_77
*680 TAP_78
*681 TAP_79
*682 TAP_80
*683 TAP_81
*684 TAP_82
*685 TAP_83
*686 TAP_84
*687 TAP_85
*688 TAP_86
*689 TAP_87
*690 TAP_88
*691 TAP_89
*692 TAP_90
*693 TAP_91
*694 TAP_92
*695 TAP_93
*696 TAP_94
*697 TAP_95
*698 TAP_96
*699 TAP_97
*700 TAP_98
*701 TAP_99
*702 _028_
*703 _029_
*704 _030_
*705 _031_
*706 _032_
*707 _033_
*708 _034_
*709 _035_
*710 _036_
*711 _037_
*712 _038_
*713 _039_
*714 _040_
*715 _041_
*716 _042_
*717 _043_
*718 _044_
*719 _045_
*720 _046_
*721 _047_
*722 _048_
*723 _049_
*724 _050_
*725 _051_
*726 _052_
*727 _053_
*728 _054_
*729 _055_
*730 _056_
*731 _057_
*732 _058_
*733 _059_
*734 _060_
*735 _061_
*736 _062_
*737 _063_
*738 _064_
*739 _065_
*740 _066_
*741 _067_
*742 _068_
*743 _069_
*744 _070_
*745 _071_
*746 _076_
*747 _077_
*748 _078_
*749 _079_
*750 _080_
*751 _081_
*752 _082_
*753 _083_
*754 _084_
*755 _085_
*756 _086_
*757 _087_
*758 _088_
*759 _089_
*760 _090_
*761 _091_
*762 _092_
*763 _093_
*764 _093__43
*765 _094_
*766 _094__44
*767 _095_
*768 _096_
*769 _097_
*770 _098_
*771 _098__45
*772 _099_
*773 _100_
*774 _101_
*775 _102_
*776 _103_
*777 _103__46
*778 _104_
*779 _105_
*780 clkbuf_0_prog_clk
*781 clkbuf_1_0__f_prog_clk
*782 clkbuf_1_1__f_prog_clk
*783 hold1
*784 hold2
*785 hold3
*786 hold4
*787 hold5
*788 hold6
*789 hold7
*790 input1
*791 input10
*792 input11
*793 input12
*794 input13
*795 input14
*796 input15
*797 input16
*798 input17
*799 input18
*800 input19
*801 input2
*802 input20
*803 input21
*804 input22
*805 input23
*806 input3
*807 input4
*808 input5
*809 input6
*810 input7
*811 input8
*812 input9
*813 output24
*814 output25
*815 output26
*816 output27
*817 output28
*818 output29
*819 output30
*820 output31
*821 output32
*822 output33
*823 output34
*824 output35
*825 output36
*826 output37
*827 output38
*828 output39
*829 output40
*830 output41
*831 output42

*PORTS
bottom_left_grid_right_width_0_height_0_subtile_0__pin_O_3_ I
bottom_right_grid_left_width_0_height_0_subtile_0__pin_inpad_0_ I
ccff_head I
ccff_tail O
chanx_left_in[0] I
chanx_left_in[1] I
chanx_left_in[2] I
chanx_left_in[3] I
chanx_left_in[4] I
chanx_left_in[5] I
chanx_left_in[6] I
chanx_left_in[7] I
chanx_left_in[8] I
chanx_left_out[0] O
chanx_left_out[1] O
chanx_left_out[2] O
chanx_left_out[3] O
chanx_left_out[4] O
chanx_left_out[5] O
chanx_left_out[6] O
chanx_left_out[7] O
chanx_left_out[8] O
chany_bottom_in[0] I
chany_bottom_in[1] I
chany_bottom_in[2] I
chany_bottom_in[3] I
chany_bottom_in[4] I
chany_bottom_in[5] I
chany_bottom_in[6] I
chany_bottom_in[7] I
chany_bottom_in[8] I
chany_bottom_out[0] O
chany_bottom_out[1] O
chany_bottom_out[2] O
chany_bottom_out[3] O
chany_bottom_out[4] O
chany_bottom_out[5] O
chany_bottom_out[6] O
chany_bottom_out[7] O
chany_bottom_out[8] O
left_bottom_grid_top_width_0_height_0_subtile_0__pin_O_2_ I
left_top_grid_bottom_width_0_height_0_subtile_0__pin_inpad_0_ I
prog_clk I

*D_NET *1 0.00198629
*CONN
*P bottom_left_grid_right_width_0_height_0_subtile_0__pin_O_3_ I
*I *790:A I *D sky130_fd_sc_hd__clkbuf_1
*CAP
1 bottom_left_grid_right_width_0_height_0_subtile_0__pin_O_3_ 0.000794248
2 *790:A 0
3 *1:19 0.000794248
4 *1:19 *803:A 0.000140259
5 *1:19 *3:15 5.40241e-05
6 *1:19 *73:41 1.68817e-05
7 *1:19 *96:8 0.000140259
8 *1:19 *109:12 2.32004e-05
9 *1:19 *118:10 2.31738e-05
*RES
1 bottom_left_grid_right_width_0_height_0_subtile_0__pin_O_3_ *1:19 33.6014 
2 *1:19 *790:A 23 
*END

*D_NET *2 0.0030596
*CONN
*P bottom_right_grid_left_width_0_height_0_subtile_0__pin_inpad_0_ I
*I *801:A I *D sky130_fd_sc_hd__clkbuf_1
*CAP
1 bottom_right_grid_left_width_0_height_0_subtile_0__pin_inpad_0_ 0.00121517
2 *801:A 0
3 *2:19 0.000166365
4 *2:9 0.00138154
5 *2:9 *760:Z 0.000225399
6 *2:9 *762:TE_B 3.7122e-06
7 *2:9 *3:15 0
8 *2:9 *123:10 0
9 *2:19 *73:41 6.74223e-05
10 *2:19 *96:16 0
*RES
1 bottom_right_grid_left_width_0_height_0_subtile_0__pin_inpad_0_ *2:9 35.01 
2 *2:9 *2:19 33.0243 
3 *2:19 *801:A 23 
*END

*D_NET *3 0.00201849
*CONN
*P ccff_head I
*I *806:A I *D sky130_fd_sc_hd__clkbuf_1
*CAP
1 ccff_head 0.000818543
2 *806:A 0
3 *3:15 0.000818543
4 *3:15 *726:A 5.88665e-05
5 *3:15 *54:10 3.22879e-05
6 *3:15 *73:41 0.00010993
7 *3:15 *80:10 5.41385e-05
8 *3:15 *83:18 7.21582e-05
9 *3:15 *109:12 0
10 *1:19 *3:15 5.40241e-05
11 *2:9 *3:15 0
*RES
1 ccff_head *3:15 34.6553 
2 *3:15 *806:A 23 
*END

*D_NET *4 0.00103007
*CONN
*P ccff_tail O
*I *813:X O *D sky130_fd_sc_hd__buf_2
*CAP
1 ccff_tail 0.000249728
2 *813:X 0.000265306
3 *4:12 0.000515035
4 *4:12 *123:10 0
*RES
1 *813:X *4:12 42.0496 
2 *4:12 ccff_tail 8.7392 
*END

*D_NET *5 0.00060101
*CONN
*P chanx_left_in[0] I
*I *807:A I *D sky130_fd_sc_hd__buf_1
*CAP
1 chanx_left_in[0] 0.000300505
2 *807:A 0
3 *5:13 0.000300505
4 *5:13 chanx_left_out[8] 0
5 *5:13 *6:15 0
6 *5:13 *145:10 0
*RES
1 chanx_left_in[0] *5:13 27.2332 
2 *5:13 *807:A 23 
*END

*D_NET *6 0.00103258
*CONN
*P chanx_left_in[1] I
*I *808:A I *D sky130_fd_sc_hd__buf_1
*CAP
1 chanx_left_in[1] 0.000423573
2 *808:A 0
3 *6:15 0.000423573
4 *6:15 *7:13 0.000185434
5 *6:15 *125:12 0
6 *6:15 *145:10 0
7 *5:13 *6:15 0
*RES
1 chanx_left_in[1] *6:15 29.8255 
2 *6:15 *808:A 23 
*END

*D_NET *7 0.000756698
*CONN
*P chanx_left_in[2] I
*I *809:A I *D sky130_fd_sc_hd__buf_1
*CAP
1 chanx_left_in[2] 0.000285632
2 *809:A 0
3 *7:13 0.000285632
4 *7:13 *8:15 0
5 *7:13 *125:12 0
6 *6:15 *7:13 0.000185434
*RES
1 chanx_left_in[2] *7:13 27.5853 
2 *7:13 *809:A 23 
*END

*D_NET *8 0.00130854
*CONN
*P chanx_left_in[3] I
*I *810:A I *D sky130_fd_sc_hd__clkbuf_1
*CAP
1 chanx_left_in[3] 0.000562071
2 *810:A 0
3 *8:15 0.000562071
4 *8:15 *756:A 0.000139346
5 *8:15 *811:A 0
6 *8:15 *128:8 4.5051e-05
7 *8:15 *148:14 0
8 *7:13 *8:15 0
*RES
1 chanx_left_in[3] *8:15 32.0833 
2 *8:15 *810:A 23 
*END

*D_NET *9 0.000608329
*CONN
*P chanx_left_in[4] I
*I *811:A I *D sky130_fd_sc_hd__buf_1
*CAP
1 chanx_left_in[4] 0.000304165
2 *811:A 0.000304165
3 *811:A *10:13 0
4 *811:A *148:14 0
5 *8:15 *811:A 0
*RES
1 chanx_left_in[4] *811:A 48.1354 
*END

*D_NET *10 0.000736381
*CONN
*P chanx_left_in[5] I
*I *812:A I *D sky130_fd_sc_hd__clkbuf_1
*CAP
1 chanx_left_in[5] 0.000368191
2 *812:A 0
3 *10:13 0.000368191
4 *10:13 *11:17 0
5 *10:13 *97:8 0
6 *10:13 *148:14 0
7 *811:A *10:13 0
*RES
1 chanx_left_in[5] *10:13 28.6417 
2 *10:13 *812:A 23 
*END

*D_NET *11 0.00110719
*CONN
*P chanx_left_in[6] I
*I *791:A I *D sky130_fd_sc_hd__clkbuf_1
*CAP
1 chanx_left_in[6] 0.00047736
2 *791:A 0
3 *11:17 0.00047736
4 *11:17 *12:13 0
5 *11:17 *111:8 0
6 *11:17 *130:6 1.14154e-05
7 *11:17 *130:8 0.000141052
8 *10:13 *11:17 0
*RES
1 chanx_left_in[6] *11:17 30.1155 
2 *11:17 *791:A 23 
*END

*D_NET *12 0.000693561
*CONN
*P chanx_left_in[7] I
*I *792:A I *D sky130_fd_sc_hd__clkbuf_1
*CAP
1 chanx_left_in[7] 0.00034678
2 *792:A 0
3 *12:13 0.00034678
4 *12:13 *13:13 0
5 *12:13 *98:8 0
6 *11:17 *12:13 0
*RES
1 chanx_left_in[7] *12:13 28.2896 
2 *12:13 *792:A 23 
*END

*D_NET *13 0.00069675
*CONN
*P chanx_left_in[8] I
*I *793:A I *D sky130_fd_sc_hd__buf_1
*CAP
1 chanx_left_in[8] 0.00025481
2 *793:A 0
3 *13:13 0.00025481
4 *13:13 *41:15 0.000187129
5 *13:13 *110:14 0
6 *12:13 *13:13 0
*RES
1 chanx_left_in[8] *13:13 27.2332 
2 *13:13 *793:A 23 
*END

*D_NET *14 0.00152885
*CONN
*P chanx_left_out[0] O
*I *814:X O *D sky130_fd_sc_hd__clkbuf_4
*CAP
1 chanx_left_out[0] 0.000138516
2 *814:X 0.000524799
3 *14:10 0.000663315
4 chanx_left_out[0] chanx_left_out[1] 0
5 chanx_left_out[0] *43:13 0
6 *14:10 *814:A 8.56254e-05
7 *14:10 *15:10 2.07145e-05
8 *14:10 *95:22 9.5877e-05
9 *14:10 *113:8 0
*RES
1 *814:X *14:10 45.1154 
2 *14:10 chanx_left_out[0] 8.50027 
*END

*D_NET *15 0.000742487
*CONN
*P chanx_left_out[1] O
*I *815:X O *D sky130_fd_sc_hd__clkbuf_4
*CAP
1 chanx_left_out[1] 9.15931e-05
2 *815:X 0.000269293
3 *15:10 0.000360886
4 chanx_left_out[1] chanx_left_out[2] 0
5 *15:10 *91:16 0
6 chanx_left_out[0] chanx_left_out[1] 0
7 *14:10 *15:10 2.07145e-05
*RES
1 *815:X *15:10 42.0289 
2 *15:10 chanx_left_out[1] 8.32853 
*END

*D_NET *16 0.0007875
*CONN
*P chanx_left_out[2] O
*I *816:X O *D sky130_fd_sc_hd__clkbuf_4
*CAP
1 chanx_left_out[2] 9.15931e-05
2 *816:X 0.000302157
3 *16:10 0.00039375
4 chanx_left_out[2] chanx_left_out[3] 0
5 chanx_left_out[1] chanx_left_out[2] 0
*RES
1 *816:X *16:10 42.7332 
2 *16:10 chanx_left_out[2] 8.32853 
*END

*D_NET *17 0.000527006
*CONN
*P chanx_left_out[3] O
*I *817:X O *D sky130_fd_sc_hd__clkbuf_4
*CAP
1 chanx_left_out[3] 0.000263503
2 *817:X 0.000263503
3 chanx_left_out[3] chanx_left_out[4] 0
4 chanx_left_out[2] chanx_left_out[3] 0
*RES
1 *817:X chanx_left_out[3] 47.1648 
*END

*D_NET *18 0.000677621
*CONN
*P chanx_left_out[4] O
*I *818:X O *D sky130_fd_sc_hd__clkbuf_4
*CAP
1 chanx_left_out[4] 8.56082e-05
2 *818:X 0.000253202
3 *18:10 0.00033881
4 chanx_left_out[4] chanx_left_out[5] 0
5 *18:10 chanx_left_out[5] 0
6 *18:10 *140:12 0
7 chanx_left_out[3] chanx_left_out[4] 0
*RES
1 *818:X *18:10 42.6089 
2 *18:10 chanx_left_out[4] 8.32853 
*END

*D_NET *19 0.000647927
*CONN
*P chanx_left_out[5] O
*I *819:X O *D sky130_fd_sc_hd__clkbuf_4
*CAP
1 chanx_left_out[5] 0.000323963
2 *819:X 0.000323963
3 chanx_left_out[5] chanx_left_out[6] 0
4 chanx_left_out[4] chanx_left_out[5] 0
5 *18:10 chanx_left_out[5] 0
*RES
1 *819:X chanx_left_out[5] 49.6532 
*END

*D_NET *20 0.000759941
*CONN
*P chanx_left_out[6] O
*I *820:X O *D sky130_fd_sc_hd__clkbuf_4
*CAP
1 chanx_left_out[6] 0.000340162
2 *820:X 0.000340162
3 chanx_left_out[6] chanx_left_out[7] 2.98092e-05
4 chanx_left_out[6] chanx_left_out[8] 0
5 chanx_left_out[6] *145:10 4.9808e-05
6 chanx_left_out[5] chanx_left_out[6] 0
*RES
1 *820:X chanx_left_out[6] 47.8828 
*END

*D_NET *21 0.000571161
*CONN
*P chanx_left_out[7] O
*I *821:X O *D sky130_fd_sc_hd__clkbuf_4
*CAP
1 chanx_left_out[7] 0.000270676
2 *821:X 0.000270676
3 chanx_left_out[7] chanx_left_out[8] 0
4 chanx_left_out[7] *145:10 0
5 chanx_left_out[6] chanx_left_out[7] 2.98092e-05
*RES
1 *821:X chanx_left_out[7] 49.5289 
*END

*D_NET *22 0.000761072
*CONN
*P chanx_left_out[8] O
*I *822:X O *D sky130_fd_sc_hd__clkbuf_4
*CAP
1 chanx_left_out[8] 0.000316746
2 *822:X 0.000316746
3 chanx_left_out[8] *145:10 0.00012758
4 chanx_left_out[6] chanx_left_out[8] 0
5 chanx_left_out[7] chanx_left_out[8] 0
6 *5:13 chanx_left_out[8] 0
*RES
1 *822:X chanx_left_out[8] 48.5734 
*END

*D_NET *23 0.00116761
*CONN
*P chany_bottom_in[0] I
*I *794:A I *D sky130_fd_sc_hd__clkbuf_1
*CAP
1 chany_bottom_in[0] 0.000514283
2 *794:A 0.000514283
3 *794:A *100:12 1.41077e-05
4 *794:A *101:14 0.000124937
*RES
1 chany_bottom_in[0] *794:A 48.8957 
*END

*D_NET *24 0.00345726
*CONN
*P chany_bottom_in[1] I
*I *795:A I *D sky130_fd_sc_hd__clkbuf_1
*CAP
1 chany_bottom_in[1] 0.00110244
2 *795:A 0
3 *24:17 0.000146181
4 *24:9 0.00124862
5 *24:9 *744:CLK 8.51432e-05
6 *24:9 *43:13 0
7 *24:9 *112:16 4.03352e-05
8 *24:9 *112:26 0.000225568
9 *24:9 *112:42 0.000398497
10 *24:9 *144:8 9.63918e-05
11 *24:17 *797:A 0
12 *24:17 *102:10 0
13 *24:17 *103:12 0.000114083
*RES
1 chany_bottom_in[1] *24:9 37.7443 
2 *24:9 *24:17 33.2314 
3 *24:17 *795:A 23 
*END

*D_NET *25 0.00146344
*CONN
*P chany_bottom_in[2] I
*I *796:A I *D sky130_fd_sc_hd__clkbuf_1
*CAP
1 chany_bottom_in[2] 0.000544956
2 *796:A 0
3 *25:11 0.000544956
4 *25:11 *43:13 0
5 *25:11 *101:14 0.000274078
6 *25:11 *102:10 1.76557e-05
7 *25:11 *112:12 8.1796e-05
*RES
1 chany_bottom_in[2] *25:11 27.8014 
2 *25:11 *796:A 23 
*END

*D_NET *26 0.00116622
*CONN
*P chany_bottom_in[3] I
*I *797:A I *D sky130_fd_sc_hd__clkbuf_1
*CAP
1 chany_bottom_in[3] 0.000550078
2 *797:A 0.000550078
3 *797:A *103:8 6.60621e-05
4 *24:17 *797:A 0
*RES
1 chany_bottom_in[3] *797:A 49.7036 
*END

*D_NET *27 0.00100747
*CONN
*P chany_bottom_in[4] I
*I *798:A I *D sky130_fd_sc_hd__clkbuf_1
*CAP
1 chany_bottom_in[4] 0.000493995
2 *798:A 0.000493995
3 *798:A *104:8 1.94812e-05
*RES
1 chany_bottom_in[4] *798:A 48.2743 
*END

*D_NET *28 0.00117007
*CONN
*P chany_bottom_in[5] I
*I *799:A I *D sky130_fd_sc_hd__clkbuf_1
*CAP
1 chany_bottom_in[5] 0.00054881
2 *799:A 0.00054881
3 *799:A *105:8 7.24484e-05
*RES
1 chany_bottom_in[5] *799:A 49.7036 
*END

*D_NET *29 0.00100675
*CONN
*P chany_bottom_in[6] I
*I *800:A I *D sky130_fd_sc_hd__clkbuf_1
*CAP
1 chany_bottom_in[6] 0.000503373
2 *800:A 0.000503373
*RES
1 chany_bottom_in[6] *800:A 48.2743 
*END

*D_NET *30 0.00122354
*CONN
*P chany_bottom_in[7] I
*I *802:A I *D sky130_fd_sc_hd__clkbuf_1
*CAP
1 chany_bottom_in[7] 0.000578738
2 *802:A 0.000578738
3 *802:A *108:8 6.60621e-05
*RES
1 chany_bottom_in[7] *802:A 49.7036 
*END

*D_NET *31 0.00118369
*CONN
*P chany_bottom_in[8] I
*I *803:A I *D sky130_fd_sc_hd__buf_1
*CAP
1 chany_bottom_in[8] 0.000470235
2 *803:A 0.000470235
3 *803:A *96:16 1.62015e-05
4 *803:A *109:12 5.50106e-05
5 *803:A *118:10 3.17516e-05
6 *1:19 *803:A 0.000140259
*RES
1 chany_bottom_in[8] *803:A 48.2743 
*END

*D_NET *32 0.000846246
*CONN
*P chany_bottom_out[0] O
*I *823:X O *D sky130_fd_sc_hd__buf_2
*CAP
1 chany_bottom_out[0] 0.000416752
2 *823:X 0.000416752
3 chany_bottom_out[0] *123:10 1.27424e-05
*RES
1 *823:X chany_bottom_out[0] 47.2507 
*END

*D_NET *33 0.00103927
*CONN
*P chany_bottom_out[1] O
*I *824:X O *D sky130_fd_sc_hd__buf_2
*CAP
1 chany_bottom_out[1] 0.00051291
2 *824:X 0.00051291
3 chany_bottom_out[1] *124:10 1.34542e-05
*RES
1 *824:X chany_bottom_out[1] 48.3389 
*END

*D_NET *34 0.000907339
*CONN
*P chany_bottom_out[2] O
*I *825:X O *D sky130_fd_sc_hd__clkbuf_4
*CAP
1 chany_bottom_out[2] 0.00045367
2 *825:X 0.00045367
*RES
1 *825:X chany_bottom_out[2] 48.1384 
*END

*D_NET *35 0.00107544
*CONN
*P chany_bottom_out[3] O
*I *826:X O *D sky130_fd_sc_hd__buf_2
*CAP
1 chany_bottom_out[3] 0.000249728
2 *826:X 0.000287993
3 *35:12 0.000537721
4 *35:12 *126:12 0
*RES
1 *826:X *35:12 42.0496 
2 *35:12 chany_bottom_out[3] 8.7392 
*END

*D_NET *36 0.000842249
*CONN
*P chany_bottom_out[4] O
*I *827:X O *D sky130_fd_sc_hd__buf_2
*CAP
1 chany_bottom_out[4] 0.000421124
2 *827:X 0.000421124
3 chany_bottom_out[4] *126:12 0
*RES
1 *827:X chany_bottom_out[4] 47.2507 
*END

*D_NET *37 0.0010726
*CONN
*P chany_bottom_out[5] O
*I *828:X O *D sky130_fd_sc_hd__buf_2
*CAP
1 chany_bottom_out[5] 0.000249728
2 *828:X 0.00028657
3 *37:12 0.000536299
*RES
1 *828:X *37:12 42.0496 
2 *37:12 chany_bottom_out[5] 8.7392 
*END

*D_NET *38 0.00082588
*CONN
*P chany_bottom_out[6] O
*I *829:X O *D sky130_fd_sc_hd__buf_2
*CAP
1 chany_bottom_out[6] 0.00041294
2 *829:X 0.00041294
3 chany_bottom_out[6] *132:12 0
*RES
1 *829:X chany_bottom_out[6] 47.2507 
*END

*D_NET *39 0.00103002
*CONN
*P chany_bottom_out[7] O
*I *830:X O *D sky130_fd_sc_hd__buf_2
*CAP
1 chany_bottom_out[7] 0.000512056
2 *830:X 0.000512056
3 chany_bottom_out[7] *754:A 0
4 chany_bottom_out[7] *830:A 5.90675e-06
5 chany_bottom_out[7] *132:12 0
*RES
1 *830:X chany_bottom_out[7] 48.3389 
*END

*D_NET *40 0.00132114
*CONN
*P chany_bottom_out[8] O
*I *831:X O *D sky130_fd_sc_hd__clkbuf_4
*CAP
1 chany_bottom_out[8] 0.000465215
2 *831:X 0.000195355
3 *40:10 0.00066057
*RES
1 *831:X *40:10 49.8425 
2 *40:10 chany_bottom_out[8] 1.53067 
*END

*D_NET *41 0.00109198
*CONN
*P left_bottom_grid_top_width_0_height_0_subtile_0__pin_O_2_ I
*I *804:A I *D sky130_fd_sc_hd__buf_1
*CAP
1 left_bottom_grid_top_width_0_height_0_subtile_0__pin_O_2_ 0.000452424
2 *804:A 0
3 *41:15 0.000452424
4 *41:15 *42:13 0
5 *13:13 *41:15 0.000187129
*RES
1 left_bottom_grid_top_width_0_height_0_subtile_0__pin_O_2_ *41:15 30.1776 
2 *41:15 *804:A 23 
*END

*D_NET *42 0.00223911
*CONN
*P left_top_grid_bottom_width_0_height_0_subtile_0__pin_inpad_0_ I
*I *805:A I *D sky130_fd_sc_hd__buf_1
*CAP
1 left_top_grid_bottom_width_0_height_0_subtile_0__pin_inpad_0_ 0.00111956
2 *805:A 0
3 *42:13 0.00111956
4 *41:15 *42:13 0
*RES
1 left_top_grid_bottom_width_0_height_0_subtile_0__pin_inpad_0_ *42:13 35.8898 
2 *42:13 *805:A 23 
*END

*D_NET *43 0.00606967
*CONN
*P prog_clk I
*I *780:A I *D sky130_fd_sc_hd__clkbuf_16
*CAP
1 prog_clk 0.00193767
2 *780:A 0.000720267
3 *43:13 0.00265794
4 *780:A *773:A 5.50106e-05
5 *780:A *773:TE_B 7.27085e-05
6 *780:A *787:A 9.65021e-05
7 *780:A *90:6 7.40718e-05
8 *43:13 *775:Z 0
9 *43:13 *46:10 6.68793e-05
10 *43:13 *47:12 0.000194309
11 *43:13 *94:10 0
12 *43:13 *95:12 0.000194318
13 *43:13 *112:12 0
14 *43:13 *112:26 0
15 *43:13 *116:14 0
16 *43:13 *144:8 0
17 chanx_left_out[0] *43:13 0
18 *24:9 *43:13 0
19 *25:11 *43:13 0
*RES
1 prog_clk *43:13 38.8112 
2 *43:13 *780:A 35.5321 
*END

*D_NET *46 0.000766158
*CONN
*I *704:A I *D sky130_fd_sc_hd__clkbuf_1
*I *703:X O *D sky130_fd_sc_hd__clkbuf_1
*CAP
1 *704:A 0
2 *703:X 0.000238747
3 *46:10 0.000238747
4 *46:10 *781:A 5.79559e-05
5 *46:10 *112:26 0.000163829
6 *43:13 *46:10 6.68793e-05
*RES
1 *703:X *46:10 42.4329 
2 *46:10 *704:A 38 
*END

*D_NET *47 0.00167727
*CONN
*I *706:A I *D sky130_fd_sc_hd__clkbuf_1
*I *705:X O *D sky130_fd_sc_hd__clkbuf_1
*CAP
1 *706:A 4.24511e-05
2 *705:X 0.000570475
3 *47:12 0.000612926
4 *47:12 *707:A 0
5 *47:12 *775:Z 0
6 *47:12 *778:A 0.000139352
7 *47:12 *778:TE_B 1.76557e-05
8 *47:12 *71:49 4.45358e-05
9 *47:12 *95:12 1.56762e-05